-- Memory Initialization File (.mif)
-- Generated from: Best.png
-- Image dimensions: 66x34
-- Color format: 2-bit (00=black, 01=white, 10=gray)
-- Target FPGA: EP3C16F484

DEPTH = 2244;
WIDTH = 2;

ADDRESS_RADIX = HEX;
DATA_RADIX = BIN;

CONTENT
BEGIN

    0 : 00;
    1 : 00;
    2 : 00;
    3 : 00;
    4 : 00;
    5 : 00;
    6 : 00;
    7 : 00;
    8 : 00;
    9 : 00;
    A : 00;
    B : 00;
    C : 10;
    D : 10;
    E : 10;
    F : 10;
    10 : 10;
    11 : 10;
    12 : 10;
    13 : 10;
    14 : 10;
    15 : 10;
    16 : 10;
    17 : 10;
    18 : 10;
    19 : 10;
    1A : 10;
    1B : 10;
    1C : 10;
    1D : 10;
    1E : 10;
    1F : 10;
    20 : 10;
    21 : 10;
    22 : 10;
    23 : 10;
    24 : 10;
    25 : 10;
    26 : 10;
    27 : 10;
    28 : 10;
    29 : 10;
    2A : 10;
    2B : 10;
    2C : 10;
    2D : 10;
    2E : 10;
    2F : 10;
    30 : 10;
    31 : 00;
    32 : 00;
    33 : 00;
    34 : 00;
    35 : 00;
    36 : 00;
    37 : 00;
    38 : 00;
    39 : 00;
    3A : 00;
    3B : 00;
    3C : 10;
    3D : 10;
    3E : 10;
    3F : 10;
    40 : 10;
    41 : 10;
    42 : 00;
    43 : 00;
    44 : 00;
    45 : 00;
    46 : 00;
    47 : 00;
    48 : 00;
    49 : 00;
    4A : 00;
    4B : 00;
    4C : 00;
    4D : 00;
    4E : 10;
    4F : 10;
    50 : 10;
    51 : 10;
    52 : 10;
    53 : 10;
    54 : 10;
    55 : 10;
    56 : 10;
    57 : 10;
    58 : 10;
    59 : 10;
    5A : 10;
    5B : 10;
    5C : 10;
    5D : 10;
    5E : 10;
    5F : 10;
    60 : 10;
    61 : 10;
    62 : 10;
    63 : 10;
    64 : 10;
    65 : 10;
    66 : 10;
    67 : 10;
    68 : 10;
    69 : 10;
    6A : 10;
    6B : 10;
    6C : 10;
    6D : 10;
    6E : 10;
    6F : 10;
    70 : 10;
    71 : 10;
    72 : 10;
    73 : 00;
    74 : 00;
    75 : 00;
    76 : 00;
    77 : 00;
    78 : 00;
    79 : 00;
    7A : 00;
    7B : 00;
    7C : 00;
    7D : 00;
    7E : 10;
    7F : 10;
    80 : 10;
    81 : 10;
    82 : 10;
    83 : 10;
    84 : 00;
    85 : 00;
    86 : 01;
    87 : 01;
    88 : 01;
    89 : 01;
    8A : 01;
    8B : 01;
    8C : 01;
    8D : 01;
    8E : 01;
    8F : 01;
    90 : 00;
    91 : 00;
    92 : 10;
    93 : 10;
    94 : 10;
    95 : 10;
    96 : 10;
    97 : 10;
    98 : 10;
    99 : 10;
    9A : 10;
    9B : 10;
    9C : 10;
    9D : 10;
    9E : 10;
    9F : 10;
    A0 : 10;
    A1 : 10;
    A2 : 10;
    A3 : 10;
    A4 : 10;
    A5 : 10;
    A6 : 10;
    A7 : 10;
    A8 : 10;
    A9 : 10;
    AA : 10;
    AB : 10;
    AC : 10;
    AD : 10;
    AE : 10;
    AF : 10;
    B0 : 10;
    B1 : 10;
    B2 : 10;
    B3 : 10;
    B4 : 10;
    B5 : 00;
    B6 : 00;
    B7 : 01;
    B8 : 01;
    B9 : 01;
    BA : 01;
    BB : 01;
    BC : 01;
    BD : 01;
    BE : 00;
    BF : 00;
    C0 : 10;
    C1 : 10;
    C2 : 10;
    C3 : 10;
    C4 : 10;
    C5 : 10;
    C6 : 00;
    C7 : 00;
    C8 : 01;
    C9 : 01;
    CA : 01;
    CB : 01;
    CC : 01;
    CD : 01;
    CE : 01;
    CF : 01;
    D0 : 01;
    D1 : 01;
    D2 : 00;
    D3 : 00;
    D4 : 10;
    D5 : 10;
    D6 : 10;
    D7 : 10;
    D8 : 10;
    D9 : 10;
    DA : 10;
    DB : 10;
    DC : 10;
    DD : 10;
    DE : 10;
    DF : 10;
    E0 : 10;
    E1 : 10;
    E2 : 10;
    E3 : 10;
    E4 : 10;
    E5 : 10;
    E6 : 10;
    E7 : 10;
    E8 : 10;
    E9 : 10;
    EA : 10;
    EB : 10;
    EC : 10;
    ED : 10;
    EE : 10;
    EF : 10;
    F0 : 10;
    F1 : 10;
    F2 : 10;
    F3 : 10;
    F4 : 10;
    F5 : 10;
    F6 : 10;
    F7 : 00;
    F8 : 00;
    F9 : 01;
    FA : 01;
    FB : 01;
    FC : 01;
    FD : 01;
    FE : 01;
    FF : 01;
    100 : 00;
    101 : 00;
    102 : 10;
    103 : 10;
    104 : 10;
    105 : 10;
    106 : 10;
    107 : 10;
    108 : 00;
    109 : 00;
    10A : 01;
    10B : 01;
    10C : 01;
    10D : 01;
    10E : 01;
    10F : 01;
    110 : 01;
    111 : 01;
    112 : 01;
    113 : 01;
    114 : 01;
    115 : 01;
    116 : 00;
    117 : 00;
    118 : 10;
    119 : 10;
    11A : 10;
    11B : 10;
    11C : 10;
    11D : 10;
    11E : 10;
    11F : 10;
    120 : 10;
    121 : 10;
    122 : 10;
    123 : 10;
    124 : 10;
    125 : 10;
    126 : 10;
    127 : 10;
    128 : 10;
    129 : 10;
    12A : 10;
    12B : 10;
    12C : 10;
    12D : 10;
    12E : 10;
    12F : 10;
    130 : 10;
    131 : 10;
    132 : 10;
    133 : 10;
    134 : 10;
    135 : 00;
    136 : 00;
    137 : 00;
    138 : 00;
    139 : 00;
    13A : 00;
    13B : 01;
    13C : 01;
    13D : 01;
    13E : 01;
    13F : 01;
    140 : 01;
    141 : 01;
    142 : 00;
    143 : 00;
    144 : 00;
    145 : 00;
    146 : 00;
    147 : 00;
    148 : 10;
    149 : 10;
    14A : 00;
    14B : 00;
    14C : 01;
    14D : 01;
    14E : 01;
    14F : 01;
    150 : 01;
    151 : 01;
    152 : 01;
    153 : 01;
    154 : 01;
    155 : 01;
    156 : 01;
    157 : 01;
    158 : 00;
    159 : 00;
    15A : 10;
    15B : 10;
    15C : 10;
    15D : 10;
    15E : 10;
    15F : 10;
    160 : 10;
    161 : 10;
    162 : 10;
    163 : 10;
    164 : 10;
    165 : 10;
    166 : 10;
    167 : 10;
    168 : 10;
    169 : 10;
    16A : 10;
    16B : 10;
    16C : 10;
    16D : 10;
    16E : 10;
    16F : 10;
    170 : 10;
    171 : 10;
    172 : 10;
    173 : 10;
    174 : 10;
    175 : 10;
    176 : 10;
    177 : 00;
    178 : 00;
    179 : 00;
    17A : 00;
    17B : 00;
    17C : 00;
    17D : 01;
    17E : 01;
    17F : 01;
    180 : 01;
    181 : 01;
    182 : 01;
    183 : 01;
    184 : 00;
    185 : 00;
    186 : 00;
    187 : 00;
    188 : 00;
    189 : 00;
    18A : 10;
    18B : 10;
    18C : 00;
    18D : 00;
    18E : 01;
    18F : 01;
    190 : 01;
    191 : 01;
    192 : 01;
    193 : 01;
    194 : 01;
    195 : 01;
    196 : 01;
    197 : 01;
    198 : 01;
    199 : 01;
    19A : 01;
    19B : 01;
    19C : 00;
    19D : 00;
    19E : 10;
    19F : 10;
    1A0 : 10;
    1A1 : 10;
    1A2 : 10;
    1A3 : 10;
    1A4 : 10;
    1A5 : 10;
    1A6 : 10;
    1A7 : 10;
    1A8 : 10;
    1A9 : 10;
    1AA : 10;
    1AB : 10;
    1AC : 10;
    1AD : 10;
    1AE : 10;
    1AF : 10;
    1B0 : 10;
    1B1 : 10;
    1B2 : 10;
    1B3 : 10;
    1B4 : 10;
    1B5 : 10;
    1B6 : 10;
    1B7 : 00;
    1B8 : 00;
    1B9 : 01;
    1BA : 01;
    1BB : 01;
    1BC : 01;
    1BD : 01;
    1BE : 01;
    1BF : 01;
    1C0 : 01;
    1C1 : 01;
    1C2 : 01;
    1C3 : 01;
    1C4 : 01;
    1C5 : 01;
    1C6 : 01;
    1C7 : 01;
    1C8 : 01;
    1C9 : 01;
    1CA : 01;
    1CB : 01;
    1CC : 00;
    1CD : 00;
    1CE : 00;
    1CF : 00;
    1D0 : 01;
    1D1 : 01;
    1D2 : 01;
    1D3 : 01;
    1D4 : 01;
    1D5 : 01;
    1D6 : 01;
    1D7 : 01;
    1D8 : 01;
    1D9 : 01;
    1DA : 01;
    1DB : 01;
    1DC : 01;
    1DD : 01;
    1DE : 00;
    1DF : 00;
    1E0 : 10;
    1E1 : 10;
    1E2 : 10;
    1E3 : 10;
    1E4 : 10;
    1E5 : 10;
    1E6 : 10;
    1E7 : 10;
    1E8 : 10;
    1E9 : 10;
    1EA : 10;
    1EB : 10;
    1EC : 10;
    1ED : 10;
    1EE : 10;
    1EF : 10;
    1F0 : 10;
    1F1 : 10;
    1F2 : 10;
    1F3 : 10;
    1F4 : 10;
    1F5 : 10;
    1F6 : 10;
    1F7 : 10;
    1F8 : 10;
    1F9 : 00;
    1FA : 00;
    1FB : 01;
    1FC : 01;
    1FD : 01;
    1FE : 01;
    1FF : 01;
    200 : 01;
    201 : 01;
    202 : 01;
    203 : 01;
    204 : 01;
    205 : 01;
    206 : 01;
    207 : 01;
    208 : 01;
    209 : 01;
    20A : 01;
    20B : 01;
    20C : 01;
    20D : 01;
    20E : 00;
    20F : 00;
    210 : 00;
    211 : 00;
    212 : 01;
    213 : 01;
    214 : 01;
    215 : 01;
    216 : 00;
    217 : 00;
    218 : 01;
    219 : 01;
    21A : 01;
    21B : 01;
    21C : 01;
    21D : 01;
    21E : 01;
    21F : 01;
    220 : 00;
    221 : 00;
    222 : 10;
    223 : 10;
    224 : 10;
    225 : 10;
    226 : 10;
    227 : 10;
    228 : 10;
    229 : 10;
    22A : 10;
    22B : 10;
    22C : 10;
    22D : 10;
    22E : 10;
    22F : 10;
    230 : 10;
    231 : 10;
    232 : 10;
    233 : 10;
    234 : 10;
    235 : 10;
    236 : 10;
    237 : 10;
    238 : 10;
    239 : 10;
    23A : 10;
    23B : 00;
    23C : 00;
    23D : 01;
    23E : 01;
    23F : 01;
    240 : 01;
    241 : 01;
    242 : 01;
    243 : 01;
    244 : 01;
    245 : 01;
    246 : 01;
    247 : 01;
    248 : 01;
    249 : 01;
    24A : 01;
    24B : 01;
    24C : 01;
    24D : 01;
    24E : 01;
    24F : 01;
    250 : 00;
    251 : 00;
    252 : 00;
    253 : 00;
    254 : 01;
    255 : 01;
    256 : 01;
    257 : 01;
    258 : 00;
    259 : 00;
    25A : 01;
    25B : 01;
    25C : 01;
    25D : 01;
    25E : 01;
    25F : 01;
    260 : 01;
    261 : 01;
    262 : 00;
    263 : 00;
    264 : 10;
    265 : 10;
    266 : 10;
    267 : 10;
    268 : 10;
    269 : 10;
    26A : 10;
    26B : 10;
    26C : 10;
    26D : 10;
    26E : 10;
    26F : 10;
    270 : 10;
    271 : 10;
    272 : 10;
    273 : 10;
    274 : 10;
    275 : 10;
    276 : 10;
    277 : 10;
    278 : 10;
    279 : 10;
    27A : 10;
    27B : 10;
    27C : 10;
    27D : 10;
    27E : 10;
    27F : 00;
    280 : 00;
    281 : 00;
    282 : 00;
    283 : 00;
    284 : 00;
    285 : 01;
    286 : 01;
    287 : 01;
    288 : 01;
    289 : 01;
    28A : 01;
    28B : 01;
    28C : 00;
    28D : 00;
    28E : 00;
    28F : 00;
    290 : 00;
    291 : 00;
    292 : 10;
    293 : 10;
    294 : 00;
    295 : 00;
    296 : 01;
    297 : 01;
    298 : 01;
    299 : 01;
    29A : 00;
    29B : 00;
    29C : 01;
    29D : 01;
    29E : 01;
    29F : 01;
    2A0 : 01;
    2A1 : 01;
    2A2 : 01;
    2A3 : 01;
    2A4 : 00;
    2A5 : 00;
    2A6 : 10;
    2A7 : 10;
    2A8 : 10;
    2A9 : 10;
    2AA : 10;
    2AB : 10;
    2AC : 10;
    2AD : 10;
    2AE : 10;
    2AF : 10;
    2B0 : 10;
    2B1 : 10;
    2B2 : 10;
    2B3 : 10;
    2B4 : 10;
    2B5 : 10;
    2B6 : 10;
    2B7 : 10;
    2B8 : 10;
    2B9 : 10;
    2BA : 10;
    2BB : 10;
    2BC : 10;
    2BD : 10;
    2BE : 10;
    2BF : 10;
    2C0 : 10;
    2C1 : 00;
    2C2 : 00;
    2C3 : 00;
    2C4 : 00;
    2C5 : 00;
    2C6 : 00;
    2C7 : 01;
    2C8 : 01;
    2C9 : 01;
    2CA : 01;
    2CB : 01;
    2CC : 01;
    2CD : 01;
    2CE : 00;
    2CF : 00;
    2D0 : 00;
    2D1 : 00;
    2D2 : 00;
    2D3 : 00;
    2D4 : 10;
    2D5 : 10;
    2D6 : 00;
    2D7 : 00;
    2D8 : 01;
    2D9 : 01;
    2DA : 01;
    2DB : 01;
    2DC : 00;
    2DD : 00;
    2DE : 01;
    2DF : 01;
    2E0 : 01;
    2E1 : 01;
    2E2 : 01;
    2E3 : 01;
    2E4 : 01;
    2E5 : 01;
    2E6 : 00;
    2E7 : 00;
    2E8 : 10;
    2E9 : 10;
    2EA : 10;
    2EB : 10;
    2EC : 00;
    2ED : 00;
    2EE : 00;
    2EF : 00;
    2F0 : 00;
    2F1 : 00;
    2F2 : 00;
    2F3 : 00;
    2F4 : 00;
    2F5 : 00;
    2F6 : 00;
    2F7 : 00;
    2F8 : 00;
    2F9 : 10;
    2FA : 10;
    2FB : 10;
    2FC : 10;
    2FD : 00;
    2FE : 00;
    2FF : 00;
    300 : 00;
    301 : 00;
    302 : 00;
    303 : 10;
    304 : 10;
    305 : 10;
    306 : 10;
    307 : 00;
    308 : 00;
    309 : 01;
    30A : 01;
    30B : 01;
    30C : 01;
    30D : 01;
    30E : 01;
    30F : 01;
    310 : 00;
    311 : 00;
    312 : 10;
    313 : 10;
    314 : 10;
    315 : 10;
    316 : 10;
    317 : 10;
    318 : 00;
    319 : 00;
    31A : 01;
    31B : 01;
    31C : 01;
    31D : 01;
    31E : 00;
    31F : 00;
    320 : 01;
    321 : 01;
    322 : 01;
    323 : 01;
    324 : 01;
    325 : 01;
    326 : 01;
    327 : 01;
    328 : 00;
    329 : 00;
    32A : 10;
    32B : 10;
    32C : 10;
    32D : 10;
    32E : 00;
    32F : 00;
    330 : 00;
    331 : 00;
    332 : 00;
    333 : 00;
    334 : 00;
    335 : 00;
    336 : 00;
    337 : 00;
    338 : 00;
    339 : 00;
    33A : 00;
    33B : 10;
    33C : 10;
    33D : 10;
    33E : 10;
    33F : 00;
    340 : 00;
    341 : 00;
    342 : 00;
    343 : 00;
    344 : 00;
    345 : 10;
    346 : 10;
    347 : 10;
    348 : 10;
    349 : 00;
    34A : 00;
    34B : 01;
    34C : 01;
    34D : 01;
    34E : 01;
    34F : 01;
    350 : 01;
    351 : 01;
    352 : 00;
    353 : 00;
    354 : 10;
    355 : 10;
    356 : 10;
    357 : 10;
    358 : 10;
    359 : 10;
    35A : 00;
    35B : 00;
    35C : 01;
    35D : 01;
    35E : 01;
    35F : 01;
    360 : 00;
    361 : 00;
    362 : 01;
    363 : 01;
    364 : 01;
    365 : 01;
    366 : 01;
    367 : 01;
    368 : 01;
    369 : 01;
    36A : 00;
    36B : 00;
    36C : 10;
    36D : 10;
    36E : 00;
    36F : 00;
    370 : 01;
    371 : 01;
    372 : 01;
    373 : 01;
    374 : 01;
    375 : 01;
    376 : 01;
    377 : 01;
    378 : 01;
    379 : 01;
    37A : 01;
    37B : 00;
    37C : 00;
    37D : 10;
    37E : 10;
    37F : 00;
    380 : 00;
    381 : 01;
    382 : 01;
    383 : 01;
    384 : 01;
    385 : 01;
    386 : 01;
    387 : 00;
    388 : 00;
    389 : 10;
    38A : 10;
    38B : 00;
    38C : 00;
    38D : 01;
    38E : 01;
    38F : 01;
    390 : 01;
    391 : 01;
    392 : 01;
    393 : 01;
    394 : 00;
    395 : 00;
    396 : 10;
    397 : 10;
    398 : 10;
    399 : 10;
    39A : 10;
    39B : 10;
    39C : 00;
    39D : 00;
    39E : 01;
    39F : 01;
    3A0 : 01;
    3A1 : 01;
    3A2 : 01;
    3A3 : 01;
    3A4 : 01;
    3A5 : 01;
    3A6 : 01;
    3A7 : 01;
    3A8 : 01;
    3A9 : 01;
    3AA : 01;
    3AB : 01;
    3AC : 00;
    3AD : 00;
    3AE : 10;
    3AF : 10;
    3B0 : 00;
    3B1 : 00;
    3B2 : 01;
    3B3 : 01;
    3B4 : 01;
    3B5 : 01;
    3B6 : 01;
    3B7 : 01;
    3B8 : 01;
    3B9 : 01;
    3BA : 01;
    3BB : 01;
    3BC : 01;
    3BD : 00;
    3BE : 00;
    3BF : 10;
    3C0 : 10;
    3C1 : 00;
    3C2 : 00;
    3C3 : 01;
    3C4 : 01;
    3C5 : 01;
    3C6 : 01;
    3C7 : 01;
    3C8 : 01;
    3C9 : 00;
    3CA : 00;
    3CB : 10;
    3CC : 10;
    3CD : 00;
    3CE : 00;
    3CF : 01;
    3D0 : 01;
    3D1 : 01;
    3D2 : 01;
    3D3 : 01;
    3D4 : 01;
    3D5 : 01;
    3D6 : 00;
    3D7 : 00;
    3D8 : 10;
    3D9 : 10;
    3DA : 10;
    3DB : 10;
    3DC : 10;
    3DD : 10;
    3DE : 00;
    3DF : 00;
    3E0 : 01;
    3E1 : 01;
    3E2 : 01;
    3E3 : 01;
    3E4 : 01;
    3E5 : 01;
    3E6 : 01;
    3E7 : 01;
    3E8 : 01;
    3E9 : 01;
    3EA : 01;
    3EB : 01;
    3EC : 01;
    3ED : 01;
    3EE : 00;
    3EF : 00;
    3F0 : 00;
    3F1 : 00;
    3F2 : 01;
    3F3 : 01;
    3F4 : 01;
    3F5 : 01;
    3F6 : 01;
    3F7 : 01;
    3F8 : 01;
    3F9 : 01;
    3FA : 01;
    3FB : 01;
    3FC : 01;
    3FD : 01;
    3FE : 01;
    3FF : 00;
    400 : 00;
    401 : 00;
    402 : 00;
    403 : 01;
    404 : 01;
    405 : 01;
    406 : 01;
    407 : 01;
    408 : 01;
    409 : 01;
    40A : 01;
    40B : 01;
    40C : 01;
    40D : 00;
    40E : 00;
    40F : 00;
    410 : 00;
    411 : 01;
    412 : 01;
    413 : 01;
    414 : 01;
    415 : 01;
    416 : 01;
    417 : 01;
    418 : 00;
    419 : 00;
    41A : 10;
    41B : 10;
    41C : 10;
    41D : 10;
    41E : 10;
    41F : 10;
    420 : 00;
    421 : 00;
    422 : 01;
    423 : 01;
    424 : 01;
    425 : 01;
    426 : 01;
    427 : 01;
    428 : 01;
    429 : 01;
    42A : 01;
    42B : 01;
    42C : 01;
    42D : 01;
    42E : 01;
    42F : 01;
    430 : 00;
    431 : 00;
    432 : 00;
    433 : 00;
    434 : 01;
    435 : 01;
    436 : 01;
    437 : 01;
    438 : 01;
    439 : 01;
    43A : 01;
    43B : 01;
    43C : 01;
    43D : 01;
    43E : 01;
    43F : 01;
    440 : 01;
    441 : 00;
    442 : 00;
    443 : 00;
    444 : 00;
    445 : 01;
    446 : 01;
    447 : 01;
    448 : 01;
    449 : 01;
    44A : 01;
    44B : 01;
    44C : 01;
    44D : 01;
    44E : 01;
    44F : 00;
    450 : 00;
    451 : 00;
    452 : 00;
    453 : 01;
    454 : 01;
    455 : 01;
    456 : 01;
    457 : 01;
    458 : 01;
    459 : 01;
    45A : 00;
    45B : 00;
    45C : 10;
    45D : 10;
    45E : 10;
    45F : 10;
    460 : 10;
    461 : 10;
    462 : 00;
    463 : 00;
    464 : 01;
    465 : 01;
    466 : 01;
    467 : 01;
    468 : 01;
    469 : 01;
    46A : 01;
    46B : 01;
    46C : 01;
    46D : 01;
    46E : 01;
    46F : 01;
    470 : 01;
    471 : 01;
    472 : 00;
    473 : 00;
    474 : 01;
    475 : 01;
    476 : 01;
    477 : 01;
    478 : 01;
    479 : 01;
    47A : 01;
    47B : 01;
    47C : 00;
    47D : 00;
    47E : 01;
    47F : 01;
    480 : 01;
    481 : 01;
    482 : 01;
    483 : 00;
    484 : 00;
    485 : 01;
    486 : 01;
    487 : 01;
    488 : 01;
    489 : 01;
    48A : 01;
    48B : 01;
    48C : 01;
    48D : 01;
    48E : 01;
    48F : 01;
    490 : 01;
    491 : 01;
    492 : 01;
    493 : 00;
    494 : 00;
    495 : 01;
    496 : 01;
    497 : 01;
    498 : 01;
    499 : 01;
    49A : 01;
    49B : 01;
    49C : 00;
    49D : 00;
    49E : 10;
    49F : 10;
    4A0 : 10;
    4A1 : 10;
    4A2 : 10;
    4A3 : 10;
    4A4 : 00;
    4A5 : 00;
    4A6 : 01;
    4A7 : 01;
    4A8 : 01;
    4A9 : 01;
    4AA : 01;
    4AB : 01;
    4AC : 01;
    4AD : 01;
    4AE : 01;
    4AF : 01;
    4B0 : 01;
    4B1 : 01;
    4B2 : 01;
    4B3 : 01;
    4B4 : 00;
    4B5 : 00;
    4B6 : 01;
    4B7 : 01;
    4B8 : 01;
    4B9 : 01;
    4BA : 01;
    4BB : 01;
    4BC : 01;
    4BD : 01;
    4BE : 00;
    4BF : 00;
    4C0 : 01;
    4C1 : 01;
    4C2 : 01;
    4C3 : 01;
    4C4 : 01;
    4C5 : 00;
    4C6 : 00;
    4C7 : 01;
    4C8 : 01;
    4C9 : 01;
    4CA : 01;
    4CB : 01;
    4CC : 01;
    4CD : 01;
    4CE : 01;
    4CF : 01;
    4D0 : 01;
    4D1 : 01;
    4D2 : 01;
    4D3 : 01;
    4D4 : 01;
    4D5 : 00;
    4D6 : 00;
    4D7 : 01;
    4D8 : 01;
    4D9 : 01;
    4DA : 01;
    4DB : 01;
    4DC : 01;
    4DD : 01;
    4DE : 00;
    4DF : 00;
    4E0 : 10;
    4E1 : 10;
    4E2 : 10;
    4E3 : 10;
    4E4 : 10;
    4E5 : 10;
    4E6 : 00;
    4E7 : 00;
    4E8 : 01;
    4E9 : 01;
    4EA : 01;
    4EB : 01;
    4EC : 01;
    4ED : 01;
    4EE : 01;
    4EF : 01;
    4F0 : 01;
    4F1 : 01;
    4F2 : 01;
    4F3 : 01;
    4F4 : 01;
    4F5 : 01;
    4F6 : 00;
    4F7 : 00;
    4F8 : 01;
    4F9 : 01;
    4FA : 01;
    4FB : 01;
    4FC : 01;
    4FD : 01;
    4FE : 01;
    4FF : 01;
    500 : 01;
    501 : 01;
    502 : 01;
    503 : 01;
    504 : 01;
    505 : 01;
    506 : 01;
    507 : 00;
    508 : 00;
    509 : 01;
    50A : 01;
    50B : 01;
    50C : 01;
    50D : 01;
    50E : 01;
    50F : 01;
    510 : 01;
    511 : 01;
    512 : 00;
    513 : 00;
    514 : 00;
    515 : 00;
    516 : 00;
    517 : 00;
    518 : 00;
    519 : 01;
    51A : 01;
    51B : 01;
    51C : 01;
    51D : 01;
    51E : 01;
    51F : 01;
    520 : 00;
    521 : 00;
    522 : 10;
    523 : 10;
    524 : 10;
    525 : 10;
    526 : 10;
    527 : 10;
    528 : 00;
    529 : 00;
    52A : 01;
    52B : 01;
    52C : 01;
    52D : 01;
    52E : 00;
    52F : 00;
    530 : 01;
    531 : 01;
    532 : 01;
    533 : 01;
    534 : 01;
    535 : 01;
    536 : 01;
    537 : 01;
    538 : 00;
    539 : 00;
    53A : 01;
    53B : 01;
    53C : 01;
    53D : 01;
    53E : 01;
    53F : 01;
    540 : 01;
    541 : 01;
    542 : 01;
    543 : 01;
    544 : 01;
    545 : 01;
    546 : 01;
    547 : 01;
    548 : 01;
    549 : 00;
    54A : 00;
    54B : 01;
    54C : 01;
    54D : 01;
    54E : 01;
    54F : 01;
    550 : 01;
    551 : 01;
    552 : 01;
    553 : 01;
    554 : 00;
    555 : 00;
    556 : 00;
    557 : 00;
    558 : 00;
    559 : 00;
    55A : 00;
    55B : 01;
    55C : 01;
    55D : 01;
    55E : 01;
    55F : 01;
    560 : 01;
    561 : 01;
    562 : 00;
    563 : 00;
    564 : 10;
    565 : 10;
    566 : 10;
    567 : 10;
    568 : 10;
    569 : 10;
    56A : 00;
    56B : 00;
    56C : 01;
    56D : 01;
    56E : 01;
    56F : 01;
    570 : 00;
    571 : 00;
    572 : 01;
    573 : 01;
    574 : 01;
    575 : 01;
    576 : 01;
    577 : 01;
    578 : 01;
    579 : 01;
    57A : 00;
    57B : 00;
    57C : 01;
    57D : 01;
    57E : 01;
    57F : 01;
    580 : 01;
    581 : 01;
    582 : 01;
    583 : 01;
    584 : 01;
    585 : 01;
    586 : 01;
    587 : 01;
    588 : 01;
    589 : 01;
    58A : 01;
    58B : 00;
    58C : 00;
    58D : 01;
    58E : 01;
    58F : 01;
    590 : 01;
    591 : 01;
    592 : 01;
    593 : 01;
    594 : 01;
    595 : 01;
    596 : 01;
    597 : 01;
    598 : 01;
    599 : 01;
    59A : 01;
    59B : 00;
    59C : 00;
    59D : 01;
    59E : 01;
    59F : 01;
    5A0 : 01;
    5A1 : 01;
    5A2 : 01;
    5A3 : 01;
    5A4 : 00;
    5A5 : 00;
    5A6 : 10;
    5A7 : 10;
    5A8 : 10;
    5A9 : 10;
    5AA : 10;
    5AB : 10;
    5AC : 00;
    5AD : 00;
    5AE : 01;
    5AF : 01;
    5B0 : 01;
    5B1 : 01;
    5B2 : 00;
    5B3 : 00;
    5B4 : 01;
    5B5 : 01;
    5B6 : 01;
    5B7 : 01;
    5B8 : 01;
    5B9 : 01;
    5BA : 01;
    5BB : 01;
    5BC : 00;
    5BD : 00;
    5BE : 01;
    5BF : 01;
    5C0 : 01;
    5C1 : 01;
    5C2 : 01;
    5C3 : 01;
    5C4 : 01;
    5C5 : 01;
    5C6 : 01;
    5C7 : 01;
    5C8 : 01;
    5C9 : 01;
    5CA : 01;
    5CB : 01;
    5CC : 01;
    5CD : 00;
    5CE : 00;
    5CF : 01;
    5D0 : 01;
    5D1 : 01;
    5D2 : 01;
    5D3 : 01;
    5D4 : 01;
    5D5 : 01;
    5D6 : 01;
    5D7 : 01;
    5D8 : 01;
    5D9 : 01;
    5DA : 01;
    5DB : 01;
    5DC : 01;
    5DD : 00;
    5DE : 00;
    5DF : 01;
    5E0 : 01;
    5E1 : 01;
    5E2 : 01;
    5E3 : 01;
    5E4 : 01;
    5E5 : 01;
    5E6 : 00;
    5E7 : 00;
    5E8 : 10;
    5E9 : 10;
    5EA : 10;
    5EB : 10;
    5EC : 10;
    5ED : 10;
    5EE : 00;
    5EF : 00;
    5F0 : 01;
    5F1 : 01;
    5F2 : 01;
    5F3 : 01;
    5F4 : 00;
    5F5 : 00;
    5F6 : 01;
    5F7 : 01;
    5F8 : 01;
    5F9 : 01;
    5FA : 01;
    5FB : 01;
    5FC : 01;
    5FD : 01;
    5FE : 00;
    5FF : 00;
    600 : 01;
    601 : 01;
    602 : 01;
    603 : 01;
    604 : 01;
    605 : 01;
    606 : 01;
    607 : 01;
    608 : 01;
    609 : 01;
    60A : 01;
    60B : 01;
    60C : 01;
    60D : 01;
    60E : 01;
    60F : 00;
    610 : 00;
    611 : 00;
    612 : 00;
    613 : 00;
    614 : 00;
    615 : 00;
    616 : 00;
    617 : 01;
    618 : 01;
    619 : 01;
    61A : 01;
    61B : 01;
    61C : 01;
    61D : 01;
    61E : 01;
    61F : 00;
    620 : 00;
    621 : 01;
    622 : 01;
    623 : 01;
    624 : 01;
    625 : 01;
    626 : 01;
    627 : 01;
    628 : 01;
    629 : 01;
    62A : 00;
    62B : 00;
    62C : 10;
    62D : 10;
    62E : 10;
    62F : 10;
    630 : 00;
    631 : 00;
    632 : 01;
    633 : 01;
    634 : 01;
    635 : 01;
    636 : 00;
    637 : 00;
    638 : 01;
    639 : 01;
    63A : 01;
    63B : 01;
    63C : 01;
    63D : 01;
    63E : 01;
    63F : 01;
    640 : 00;
    641 : 00;
    642 : 01;
    643 : 01;
    644 : 01;
    645 : 01;
    646 : 01;
    647 : 01;
    648 : 01;
    649 : 01;
    64A : 01;
    64B : 01;
    64C : 01;
    64D : 01;
    64E : 01;
    64F : 01;
    650 : 01;
    651 : 00;
    652 : 00;
    653 : 00;
    654 : 00;
    655 : 00;
    656 : 00;
    657 : 00;
    658 : 00;
    659 : 01;
    65A : 01;
    65B : 01;
    65C : 01;
    65D : 01;
    65E : 01;
    65F : 01;
    660 : 01;
    661 : 00;
    662 : 00;
    663 : 01;
    664 : 01;
    665 : 01;
    666 : 01;
    667 : 01;
    668 : 01;
    669 : 01;
    66A : 01;
    66B : 01;
    66C : 00;
    66D : 00;
    66E : 10;
    66F : 10;
    670 : 10;
    671 : 10;
    672 : 00;
    673 : 00;
    674 : 01;
    675 : 01;
    676 : 01;
    677 : 01;
    678 : 00;
    679 : 00;
    67A : 01;
    67B : 01;
    67C : 01;
    67D : 01;
    67E : 01;
    67F : 01;
    680 : 01;
    681 : 01;
    682 : 00;
    683 : 00;
    684 : 01;
    685 : 01;
    686 : 01;
    687 : 01;
    688 : 01;
    689 : 01;
    68A : 01;
    68B : 00;
    68C : 00;
    68D : 00;
    68E : 00;
    68F : 00;
    690 : 00;
    691 : 00;
    692 : 00;
    693 : 00;
    694 : 00;
    695 : 01;
    696 : 01;
    697 : 01;
    698 : 01;
    699 : 01;
    69A : 01;
    69B : 01;
    69C : 01;
    69D : 01;
    69E : 01;
    69F : 01;
    6A0 : 01;
    6A1 : 01;
    6A2 : 01;
    6A3 : 00;
    6A4 : 00;
    6A5 : 01;
    6A6 : 01;
    6A7 : 01;
    6A8 : 01;
    6A9 : 01;
    6AA : 01;
    6AB : 01;
    6AC : 01;
    6AD : 01;
    6AE : 01;
    6AF : 01;
    6B0 : 00;
    6B1 : 00;
    6B2 : 10;
    6B3 : 10;
    6B4 : 00;
    6B5 : 00;
    6B6 : 01;
    6B7 : 01;
    6B8 : 01;
    6B9 : 01;
    6BA : 01;
    6BB : 01;
    6BC : 01;
    6BD : 01;
    6BE : 01;
    6BF : 01;
    6C0 : 01;
    6C1 : 01;
    6C2 : 01;
    6C3 : 01;
    6C4 : 00;
    6C5 : 00;
    6C6 : 01;
    6C7 : 01;
    6C8 : 01;
    6C9 : 01;
    6CA : 01;
    6CB : 01;
    6CC : 01;
    6CD : 00;
    6CE : 00;
    6CF : 00;
    6D0 : 00;
    6D1 : 00;
    6D2 : 00;
    6D3 : 00;
    6D4 : 00;
    6D5 : 00;
    6D6 : 00;
    6D7 : 01;
    6D8 : 01;
    6D9 : 01;
    6DA : 01;
    6DB : 01;
    6DC : 01;
    6DD : 01;
    6DE : 01;
    6DF : 01;
    6E0 : 01;
    6E1 : 01;
    6E2 : 01;
    6E3 : 01;
    6E4 : 01;
    6E5 : 00;
    6E6 : 00;
    6E7 : 01;
    6E8 : 01;
    6E9 : 01;
    6EA : 01;
    6EB : 01;
    6EC : 01;
    6ED : 01;
    6EE : 01;
    6EF : 01;
    6F0 : 01;
    6F1 : 01;
    6F2 : 00;
    6F3 : 00;
    6F4 : 10;
    6F5 : 10;
    6F6 : 00;
    6F7 : 00;
    6F8 : 01;
    6F9 : 01;
    6FA : 01;
    6FB : 01;
    6FC : 01;
    6FD : 01;
    6FE : 01;
    6FF : 01;
    700 : 01;
    701 : 01;
    702 : 01;
    703 : 01;
    704 : 00;
    705 : 00;
    706 : 00;
    707 : 00;
    708 : 00;
    709 : 00;
    70A : 01;
    70B : 01;
    70C : 01;
    70D : 01;
    70E : 01;
    70F : 01;
    710 : 01;
    711 : 01;
    712 : 01;
    713 : 01;
    714 : 01;
    715 : 01;
    716 : 01;
    717 : 00;
    718 : 00;
    719 : 00;
    71A : 00;
    71B : 01;
    71C : 01;
    71D : 01;
    71E : 01;
    71F : 01;
    720 : 01;
    721 : 01;
    722 : 01;
    723 : 01;
    724 : 01;
    725 : 00;
    726 : 00;
    727 : 00;
    728 : 00;
    729 : 00;
    72A : 00;
    72B : 01;
    72C : 01;
    72D : 01;
    72E : 01;
    72F : 01;
    730 : 01;
    731 : 01;
    732 : 01;
    733 : 01;
    734 : 00;
    735 : 00;
    736 : 10;
    737 : 10;
    738 : 00;
    739 : 00;
    73A : 01;
    73B : 01;
    73C : 01;
    73D : 01;
    73E : 01;
    73F : 01;
    740 : 01;
    741 : 01;
    742 : 01;
    743 : 01;
    744 : 01;
    745 : 01;
    746 : 00;
    747 : 00;
    748 : 00;
    749 : 00;
    74A : 00;
    74B : 00;
    74C : 01;
    74D : 01;
    74E : 01;
    74F : 01;
    750 : 01;
    751 : 01;
    752 : 01;
    753 : 01;
    754 : 01;
    755 : 01;
    756 : 01;
    757 : 01;
    758 : 01;
    759 : 00;
    75A : 00;
    75B : 00;
    75C : 00;
    75D : 01;
    75E : 01;
    75F : 01;
    760 : 01;
    761 : 01;
    762 : 01;
    763 : 01;
    764 : 01;
    765 : 01;
    766 : 01;
    767 : 00;
    768 : 00;
    769 : 00;
    76A : 00;
    76B : 00;
    76C : 00;
    76D : 01;
    76E : 01;
    76F : 01;
    770 : 01;
    771 : 01;
    772 : 01;
    773 : 01;
    774 : 01;
    775 : 01;
    776 : 00;
    777 : 00;
    778 : 10;
    779 : 10;
    77A : 00;
    77B : 00;
    77C : 01;
    77D : 01;
    77E : 01;
    77F : 01;
    780 : 01;
    781 : 01;
    782 : 01;
    783 : 01;
    784 : 01;
    785 : 01;
    786 : 00;
    787 : 00;
    788 : 00;
    789 : 00;
    78A : 10;
    78B : 10;
    78C : 00;
    78D : 00;
    78E : 00;
    78F : 00;
    790 : 01;
    791 : 01;
    792 : 01;
    793 : 01;
    794 : 01;
    795 : 01;
    796 : 01;
    797 : 01;
    798 : 01;
    799 : 01;
    79A : 01;
    79B : 00;
    79C : 00;
    79D : 00;
    79E : 00;
    79F : 00;
    7A0 : 00;
    7A1 : 01;
    7A2 : 01;
    7A3 : 01;
    7A4 : 01;
    7A5 : 01;
    7A6 : 01;
    7A7 : 00;
    7A8 : 00;
    7A9 : 00;
    7AA : 00;
    7AB : 10;
    7AC : 10;
    7AD : 00;
    7AE : 00;
    7AF : 00;
    7B0 : 00;
    7B1 : 01;
    7B2 : 01;
    7B3 : 01;
    7B4 : 01;
    7B5 : 01;
    7B6 : 01;
    7B7 : 01;
    7B8 : 00;
    7B9 : 00;
    7BA : 10;
    7BB : 10;
    7BC : 00;
    7BD : 00;
    7BE : 01;
    7BF : 01;
    7C0 : 01;
    7C1 : 01;
    7C2 : 01;
    7C3 : 01;
    7C4 : 01;
    7C5 : 01;
    7C6 : 01;
    7C7 : 01;
    7C8 : 00;
    7C9 : 00;
    7CA : 00;
    7CB : 00;
    7CC : 10;
    7CD : 10;
    7CE : 00;
    7CF : 00;
    7D0 : 00;
    7D1 : 00;
    7D2 : 01;
    7D3 : 01;
    7D4 : 01;
    7D5 : 01;
    7D6 : 01;
    7D7 : 01;
    7D8 : 01;
    7D9 : 01;
    7DA : 01;
    7DB : 01;
    7DC : 01;
    7DD : 00;
    7DE : 00;
    7DF : 00;
    7E0 : 00;
    7E1 : 00;
    7E2 : 00;
    7E3 : 01;
    7E4 : 01;
    7E5 : 01;
    7E6 : 01;
    7E7 : 01;
    7E8 : 01;
    7E9 : 00;
    7EA : 00;
    7EB : 00;
    7EC : 00;
    7ED : 10;
    7EE : 10;
    7EF : 00;
    7F0 : 00;
    7F1 : 00;
    7F2 : 00;
    7F3 : 01;
    7F4 : 01;
    7F5 : 01;
    7F6 : 01;
    7F7 : 01;
    7F8 : 01;
    7F9 : 01;
    7FA : 00;
    7FB : 00;
    7FC : 10;
    7FD : 10;
    7FE : 00;
    7FF : 00;
    800 : 00;
    801 : 00;
    802 : 00;
    803 : 00;
    804 : 00;
    805 : 00;
    806 : 00;
    807 : 00;
    808 : 00;
    809 : 00;
    80A : 00;
    80B : 00;
    80C : 10;
    80D : 10;
    80E : 10;
    80F : 10;
    810 : 10;
    811 : 10;
    812 : 00;
    813 : 00;
    814 : 00;
    815 : 00;
    816 : 00;
    817 : 00;
    818 : 00;
    819 : 00;
    81A : 00;
    81B : 00;
    81C : 00;
    81D : 00;
    81E : 00;
    81F : 00;
    820 : 00;
    821 : 10;
    822 : 10;
    823 : 00;
    824 : 00;
    825 : 00;
    826 : 00;
    827 : 00;
    828 : 00;
    829 : 00;
    82A : 00;
    82B : 00;
    82C : 00;
    82D : 10;
    82E : 10;
    82F : 10;
    830 : 10;
    831 : 10;
    832 : 10;
    833 : 00;
    834 : 00;
    835 : 00;
    836 : 00;
    837 : 00;
    838 : 00;
    839 : 00;
    83A : 00;
    83B : 00;
    83C : 00;
    83D : 00;
    83E : 10;
    83F : 10;
    840 : 00;
    841 : 00;
    842 : 00;
    843 : 00;
    844 : 00;
    845 : 00;
    846 : 00;
    847 : 00;
    848 : 00;
    849 : 00;
    84A : 00;
    84B : 00;
    84C : 00;
    84D : 00;
    84E : 10;
    84F : 10;
    850 : 10;
    851 : 10;
    852 : 10;
    853 : 10;
    854 : 00;
    855 : 00;
    856 : 00;
    857 : 00;
    858 : 00;
    859 : 00;
    85A : 00;
    85B : 00;
    85C : 00;
    85D : 00;
    85E : 00;
    85F : 00;
    860 : 00;
    861 : 00;
    862 : 00;
    863 : 10;
    864 : 10;
    865 : 00;
    866 : 00;
    867 : 00;
    868 : 00;
    869 : 00;
    86A : 00;
    86B : 00;
    86C : 00;
    86D : 00;
    86E : 00;
    86F : 10;
    870 : 10;
    871 : 10;
    872 : 10;
    873 : 10;
    874 : 10;
    875 : 00;
    876 : 00;
    877 : 00;
    878 : 00;
    879 : 00;
    87A : 00;
    87B : 00;
    87C : 00;
    87D : 00;
    87E : 00;
    87F : 00;
    880 : 10;
    881 : 10;
    882 : 00;
    883 : 00;
    884 : 00;
    885 : 00;
    886 : 00;
    887 : 00;
    888 : 00;
    889 : 00;
    88A : 00;
    88B : 00;
    88C : 00;
    88D : 00;
    88E : 00;
    88F : 00;
    890 : 10;
    891 : 10;
    892 : 10;
    893 : 10;
    894 : 10;
    895 : 10;
    896 : 10;
    897 : 10;
    898 : 00;
    899 : 00;
    89A : 00;
    89B : 00;
    89C : 00;
    89D : 00;
    89E : 00;
    89F : 00;
    8A0 : 00;
    8A1 : 00;
    8A2 : 00;
    8A3 : 00;
    8A4 : 00;
    8A5 : 10;
    8A6 : 10;
    8A7 : 10;
    8A8 : 10;
    8A9 : 00;
    8AA : 00;
    8AB : 00;
    8AC : 00;
    8AD : 00;
    8AE : 00;
    8AF : 10;
    8B0 : 10;
    8B1 : 10;
    8B2 : 10;
    8B3 : 10;
    8B4 : 10;
    8B5 : 10;
    8B6 : 10;
    8B7 : 10;
    8B8 : 10;
    8B9 : 00;
    8BA : 00;
    8BB : 00;
    8BC : 00;
    8BD : 00;
    8BE : 00;
    8BF : 00;
    8C0 : 00;
    8C1 : 00;
    8C2 : 10;
    8C3 : 10;

END;
