-- Memory Initialization File (.mif)
-- Generated from: GameOver.png
-- Image dimensions: 313x58
-- Color format: 2-bit (00=black, 01=white, 10=gray)
-- Target FPGA: EP3C16F484

DEPTH = 18154;
WIDTH = 2;

ADDRESS_RADIX = HEX;
DATA_RADIX = BIN;

CONTENT
BEGIN

    0 : 00;
    1 : 00;
    2 : 00;
    3 : 00;
    4 : 00;
    5 : 00;
    6 : 00;
    7 : 00;
    8 : 00;
    9 : 00;
    A : 00;
    B : 00;
    C : 00;
    D : 00;
    E : 00;
    F : 00;
    10 : 00;
    11 : 00;
    12 : 00;
    13 : 00;
    14 : 00;
    15 : 00;
    16 : 00;
    17 : 00;
    18 : 00;
    19 : 00;
    1A : 00;
    1B : 00;
    1C : 00;
    1D : 00;
    1E : 00;
    1F : 00;
    20 : 00;
    21 : 00;
    22 : 00;
    23 : 00;
    24 : 00;
    25 : 00;
    26 : 00;
    27 : 00;
    28 : 00;
    29 : 00;
    2A : 00;
    2B : 00;
    2C : 00;
    2D : 00;
    2E : 00;
    2F : 00;
    30 : 00;
    31 : 00;
    32 : 00;
    33 : 00;
    34 : 00;
    35 : 00;
    36 : 00;
    37 : 00;
    38 : 00;
    39 : 00;
    3A : 00;
    3B : 00;
    3C : 00;
    3D : 00;
    3E : 00;
    3F : 00;
    40 : 00;
    41 : 00;
    42 : 00;
    43 : 00;
    44 : 10;
    45 : 10;
    46 : 10;
    47 : 10;
    48 : 10;
    49 : 10;
    4A : 10;
    4B : 10;
    4C : 10;
    4D : 10;
    4E : 10;
    4F : 10;
    50 : 10;
    51 : 10;
    52 : 10;
    53 : 10;
    54 : 10;
    55 : 10;
    56 : 10;
    57 : 10;
    58 : 10;
    59 : 10;
    5A : 10;
    5B : 10;
    5C : 10;
    5D : 10;
    5E : 10;
    5F : 10;
    60 : 10;
    61 : 10;
    62 : 10;
    63 : 10;
    64 : 10;
    65 : 10;
    66 : 10;
    67 : 10;
    68 : 10;
    69 : 10;
    6A : 10;
    6B : 10;
    6C : 10;
    6D : 10;
    6E : 10;
    6F : 10;
    70 : 10;
    71 : 10;
    72 : 10;
    73 : 10;
    74 : 10;
    75 : 10;
    76 : 10;
    77 : 00;
    78 : 00;
    79 : 00;
    7A : 00;
    7B : 00;
    7C : 00;
    7D : 00;
    7E : 00;
    7F : 00;
    80 : 00;
    81 : 00;
    82 : 00;
    83 : 00;
    84 : 00;
    85 : 00;
    86 : 00;
    87 : 00;
    88 : 00;
    89 : 00;
    8A : 00;
    8B : 00;
    8C : 00;
    8D : 00;
    8E : 00;
    8F : 00;
    90 : 00;
    91 : 00;
    92 : 00;
    93 : 00;
    94 : 00;
    95 : 00;
    96 : 00;
    97 : 00;
    98 : 00;
    99 : 00;
    9A : 00;
    9B : 00;
    9C : 00;
    9D : 10;
    9E : 10;
    9F : 10;
    A0 : 10;
    A1 : 10;
    A2 : 10;
    A3 : 10;
    A4 : 10;
    A5 : 10;
    A6 : 10;
    A7 : 10;
    A8 : 10;
    A9 : 10;
    AA : 10;
    AB : 10;
    AC : 10;
    AD : 00;
    AE : 00;
    AF : 00;
    B0 : 00;
    B1 : 00;
    B2 : 00;
    B3 : 00;
    B4 : 00;
    B5 : 00;
    B6 : 00;
    B7 : 00;
    B8 : 00;
    B9 : 00;
    BA : 00;
    BB : 00;
    BC : 00;
    BD : 00;
    BE : 00;
    BF : 00;
    C0 : 00;
    C1 : 00;
    C2 : 00;
    C3 : 00;
    C4 : 00;
    C5 : 00;
    C6 : 00;
    C7 : 00;
    C8 : 00;
    C9 : 00;
    CA : 00;
    CB : 00;
    CC : 00;
    CD : 00;
    CE : 00;
    CF : 00;
    D0 : 00;
    D1 : 00;
    D2 : 10;
    D3 : 10;
    D4 : 10;
    D5 : 10;
    D6 : 10;
    D7 : 10;
    D8 : 10;
    D9 : 10;
    DA : 10;
    DB : 10;
    DC : 10;
    DD : 10;
    DE : 10;
    DF : 10;
    E0 : 10;
    E1 : 10;
    E2 : 10;
    E3 : 10;
    E4 : 10;
    E5 : 10;
    E6 : 10;
    E7 : 10;
    E8 : 10;
    E9 : 10;
    EA : 10;
    EB : 10;
    EC : 10;
    ED : 10;
    EE : 10;
    EF : 10;
    F0 : 10;
    F1 : 00;
    F2 : 00;
    F3 : 00;
    F4 : 00;
    F5 : 00;
    F6 : 00;
    F7 : 00;
    F8 : 00;
    F9 : 00;
    FA : 00;
    FB : 00;
    FC : 00;
    FD : 00;
    FE : 00;
    FF : 00;
    100 : 00;
    101 : 00;
    102 : 00;
    103 : 00;
    104 : 00;
    105 : 00;
    106 : 00;
    107 : 00;
    108 : 00;
    109 : 00;
    10A : 00;
    10B : 00;
    10C : 00;
    10D : 00;
    10E : 00;
    10F : 00;
    110 : 00;
    111 : 00;
    112 : 00;
    113 : 00;
    114 : 00;
    115 : 00;
    116 : 00;
    117 : 10;
    118 : 10;
    119 : 10;
    11A : 10;
    11B : 10;
    11C : 10;
    11D : 10;
    11E : 10;
    11F : 10;
    120 : 10;
    121 : 10;
    122 : 10;
    123 : 10;
    124 : 10;
    125 : 10;
    126 : 10;
    127 : 10;
    128 : 10;
    129 : 10;
    12A : 10;
    12B : 10;
    12C : 10;
    12D : 10;
    12E : 10;
    12F : 10;
    130 : 10;
    131 : 10;
    132 : 10;
    133 : 10;
    134 : 10;
    135 : 10;
    136 : 10;
    137 : 10;
    138 : 10;
    139 : 00;
    13A : 00;
    13B : 00;
    13C : 00;
    13D : 00;
    13E : 00;
    13F : 00;
    140 : 00;
    141 : 00;
    142 : 00;
    143 : 00;
    144 : 00;
    145 : 00;
    146 : 00;
    147 : 00;
    148 : 00;
    149 : 00;
    14A : 00;
    14B : 00;
    14C : 00;
    14D : 00;
    14E : 00;
    14F : 00;
    150 : 00;
    151 : 00;
    152 : 00;
    153 : 00;
    154 : 00;
    155 : 00;
    156 : 00;
    157 : 00;
    158 : 00;
    159 : 00;
    15A : 00;
    15B : 00;
    15C : 00;
    15D : 00;
    15E : 00;
    15F : 00;
    160 : 00;
    161 : 00;
    162 : 00;
    163 : 00;
    164 : 00;
    165 : 00;
    166 : 00;
    167 : 00;
    168 : 00;
    169 : 00;
    16A : 00;
    16B : 00;
    16C : 00;
    16D : 00;
    16E : 00;
    16F : 00;
    170 : 00;
    171 : 00;
    172 : 00;
    173 : 00;
    174 : 00;
    175 : 00;
    176 : 00;
    177 : 00;
    178 : 00;
    179 : 00;
    17A : 00;
    17B : 00;
    17C : 00;
    17D : 10;
    17E : 10;
    17F : 10;
    180 : 10;
    181 : 10;
    182 : 10;
    183 : 10;
    184 : 10;
    185 : 10;
    186 : 10;
    187 : 10;
    188 : 10;
    189 : 10;
    18A : 10;
    18B : 10;
    18C : 10;
    18D : 10;
    18E : 10;
    18F : 10;
    190 : 10;
    191 : 10;
    192 : 10;
    193 : 10;
    194 : 10;
    195 : 10;
    196 : 10;
    197 : 10;
    198 : 10;
    199 : 10;
    19A : 10;
    19B : 10;
    19C : 10;
    19D : 10;
    19E : 10;
    19F : 10;
    1A0 : 10;
    1A1 : 10;
    1A2 : 10;
    1A3 : 10;
    1A4 : 10;
    1A5 : 10;
    1A6 : 10;
    1A7 : 10;
    1A8 : 10;
    1A9 : 10;
    1AA : 10;
    1AB : 10;
    1AC : 10;
    1AD : 10;
    1AE : 10;
    1AF : 10;
    1B0 : 00;
    1B1 : 00;
    1B2 : 00;
    1B3 : 00;
    1B4 : 00;
    1B5 : 00;
    1B6 : 00;
    1B7 : 00;
    1B8 : 00;
    1B9 : 00;
    1BA : 00;
    1BB : 00;
    1BC : 00;
    1BD : 00;
    1BE : 00;
    1BF : 00;
    1C0 : 00;
    1C1 : 00;
    1C2 : 00;
    1C3 : 00;
    1C4 : 00;
    1C5 : 00;
    1C6 : 00;
    1C7 : 00;
    1C8 : 00;
    1C9 : 00;
    1CA : 00;
    1CB : 00;
    1CC : 00;
    1CD : 00;
    1CE : 00;
    1CF : 00;
    1D0 : 00;
    1D1 : 00;
    1D2 : 00;
    1D3 : 00;
    1D4 : 00;
    1D5 : 00;
    1D6 : 10;
    1D7 : 10;
    1D8 : 10;
    1D9 : 10;
    1DA : 10;
    1DB : 10;
    1DC : 10;
    1DD : 10;
    1DE : 10;
    1DF : 10;
    1E0 : 10;
    1E1 : 10;
    1E2 : 10;
    1E3 : 10;
    1E4 : 10;
    1E5 : 10;
    1E6 : 00;
    1E7 : 00;
    1E8 : 00;
    1E9 : 00;
    1EA : 00;
    1EB : 00;
    1EC : 00;
    1ED : 00;
    1EE : 00;
    1EF : 00;
    1F0 : 00;
    1F1 : 00;
    1F2 : 00;
    1F3 : 00;
    1F4 : 00;
    1F5 : 00;
    1F6 : 00;
    1F7 : 00;
    1F8 : 00;
    1F9 : 00;
    1FA : 00;
    1FB : 00;
    1FC : 00;
    1FD : 00;
    1FE : 00;
    1FF : 00;
    200 : 00;
    201 : 00;
    202 : 00;
    203 : 00;
    204 : 00;
    205 : 00;
    206 : 00;
    207 : 00;
    208 : 00;
    209 : 00;
    20A : 00;
    20B : 10;
    20C : 10;
    20D : 10;
    20E : 10;
    20F : 10;
    210 : 10;
    211 : 10;
    212 : 10;
    213 : 10;
    214 : 10;
    215 : 10;
    216 : 10;
    217 : 10;
    218 : 10;
    219 : 10;
    21A : 10;
    21B : 10;
    21C : 10;
    21D : 10;
    21E : 10;
    21F : 10;
    220 : 10;
    221 : 10;
    222 : 10;
    223 : 10;
    224 : 10;
    225 : 10;
    226 : 10;
    227 : 10;
    228 : 10;
    229 : 10;
    22A : 00;
    22B : 00;
    22C : 00;
    22D : 00;
    22E : 00;
    22F : 00;
    230 : 00;
    231 : 00;
    232 : 00;
    233 : 00;
    234 : 00;
    235 : 00;
    236 : 00;
    237 : 00;
    238 : 00;
    239 : 00;
    23A : 00;
    23B : 00;
    23C : 00;
    23D : 00;
    23E : 00;
    23F : 00;
    240 : 00;
    241 : 00;
    242 : 00;
    243 : 00;
    244 : 00;
    245 : 00;
    246 : 00;
    247 : 00;
    248 : 00;
    249 : 00;
    24A : 00;
    24B : 00;
    24C : 00;
    24D : 00;
    24E : 00;
    24F : 00;
    250 : 10;
    251 : 10;
    252 : 10;
    253 : 10;
    254 : 10;
    255 : 10;
    256 : 10;
    257 : 10;
    258 : 10;
    259 : 10;
    25A : 10;
    25B : 10;
    25C : 10;
    25D : 10;
    25E : 10;
    25F : 10;
    260 : 10;
    261 : 10;
    262 : 10;
    263 : 10;
    264 : 10;
    265 : 10;
    266 : 10;
    267 : 10;
    268 : 10;
    269 : 10;
    26A : 10;
    26B : 10;
    26C : 10;
    26D : 10;
    26E : 10;
    26F : 10;
    270 : 10;
    271 : 10;
    272 : 00;
    273 : 00;
    274 : 00;
    275 : 00;
    276 : 00;
    277 : 00;
    278 : 00;
    279 : 00;
    27A : 00;
    27B : 00;
    27C : 00;
    27D : 00;
    27E : 00;
    27F : 00;
    280 : 00;
    281 : 00;
    282 : 00;
    283 : 00;
    284 : 00;
    285 : 00;
    286 : 00;
    287 : 00;
    288 : 00;
    289 : 00;
    28A : 00;
    28B : 00;
    28C : 00;
    28D : 00;
    28E : 00;
    28F : 00;
    290 : 00;
    291 : 00;
    292 : 00;
    293 : 00;
    294 : 00;
    295 : 00;
    296 : 00;
    297 : 00;
    298 : 00;
    299 : 00;
    29A : 00;
    29B : 00;
    29C : 00;
    29D : 00;
    29E : 00;
    29F : 00;
    2A0 : 00;
    2A1 : 00;
    2A2 : 00;
    2A3 : 00;
    2A4 : 00;
    2A5 : 00;
    2A6 : 00;
    2A7 : 00;
    2A8 : 00;
    2A9 : 00;
    2AA : 00;
    2AB : 00;
    2AC : 00;
    2AD : 00;
    2AE : 00;
    2AF : 00;
    2B0 : 00;
    2B1 : 00;
    2B2 : 00;
    2B3 : 00;
    2B4 : 00;
    2B5 : 00;
    2B6 : 10;
    2B7 : 10;
    2B8 : 10;
    2B9 : 10;
    2BA : 10;
    2BB : 10;
    2BC : 10;
    2BD : 10;
    2BE : 10;
    2BF : 10;
    2C0 : 10;
    2C1 : 10;
    2C2 : 10;
    2C3 : 10;
    2C4 : 10;
    2C5 : 10;
    2C6 : 10;
    2C7 : 10;
    2C8 : 10;
    2C9 : 10;
    2CA : 10;
    2CB : 10;
    2CC : 10;
    2CD : 10;
    2CE : 10;
    2CF : 10;
    2D0 : 10;
    2D1 : 10;
    2D2 : 10;
    2D3 : 10;
    2D4 : 10;
    2D5 : 10;
    2D6 : 10;
    2D7 : 10;
    2D8 : 10;
    2D9 : 10;
    2DA : 10;
    2DB : 10;
    2DC : 10;
    2DD : 10;
    2DE : 10;
    2DF : 10;
    2E0 : 10;
    2E1 : 10;
    2E2 : 10;
    2E3 : 10;
    2E4 : 10;
    2E5 : 10;
    2E6 : 10;
    2E7 : 10;
    2E8 : 10;
    2E9 : 00;
    2EA : 00;
    2EB : 00;
    2EC : 00;
    2ED : 00;
    2EE : 00;
    2EF : 00;
    2F0 : 00;
    2F1 : 00;
    2F2 : 00;
    2F3 : 00;
    2F4 : 00;
    2F5 : 00;
    2F6 : 00;
    2F7 : 00;
    2F8 : 00;
    2F9 : 00;
    2FA : 00;
    2FB : 00;
    2FC : 00;
    2FD : 00;
    2FE : 00;
    2FF : 00;
    300 : 00;
    301 : 00;
    302 : 00;
    303 : 00;
    304 : 00;
    305 : 00;
    306 : 00;
    307 : 00;
    308 : 00;
    309 : 00;
    30A : 00;
    30B : 00;
    30C : 00;
    30D : 00;
    30E : 00;
    30F : 10;
    310 : 10;
    311 : 10;
    312 : 10;
    313 : 10;
    314 : 10;
    315 : 10;
    316 : 10;
    317 : 10;
    318 : 10;
    319 : 10;
    31A : 10;
    31B : 10;
    31C : 10;
    31D : 10;
    31E : 10;
    31F : 00;
    320 : 00;
    321 : 00;
    322 : 00;
    323 : 00;
    324 : 00;
    325 : 00;
    326 : 00;
    327 : 00;
    328 : 00;
    329 : 00;
    32A : 00;
    32B : 00;
    32C : 00;
    32D : 00;
    32E : 00;
    32F : 00;
    330 : 00;
    331 : 00;
    332 : 00;
    333 : 00;
    334 : 00;
    335 : 00;
    336 : 00;
    337 : 00;
    338 : 00;
    339 : 00;
    33A : 00;
    33B : 00;
    33C : 00;
    33D : 00;
    33E : 00;
    33F : 00;
    340 : 00;
    341 : 00;
    342 : 00;
    343 : 00;
    344 : 10;
    345 : 10;
    346 : 10;
    347 : 10;
    348 : 10;
    349 : 10;
    34A : 10;
    34B : 10;
    34C : 10;
    34D : 10;
    34E : 10;
    34F : 10;
    350 : 10;
    351 : 10;
    352 : 10;
    353 : 10;
    354 : 10;
    355 : 10;
    356 : 10;
    357 : 10;
    358 : 10;
    359 : 10;
    35A : 10;
    35B : 10;
    35C : 10;
    35D : 10;
    35E : 10;
    35F : 10;
    360 : 10;
    361 : 10;
    362 : 10;
    363 : 00;
    364 : 00;
    365 : 00;
    366 : 00;
    367 : 00;
    368 : 00;
    369 : 00;
    36A : 00;
    36B : 00;
    36C : 00;
    36D : 00;
    36E : 00;
    36F : 00;
    370 : 00;
    371 : 00;
    372 : 00;
    373 : 00;
    374 : 00;
    375 : 00;
    376 : 00;
    377 : 00;
    378 : 00;
    379 : 00;
    37A : 00;
    37B : 00;
    37C : 00;
    37D : 00;
    37E : 00;
    37F : 00;
    380 : 00;
    381 : 00;
    382 : 00;
    383 : 00;
    384 : 00;
    385 : 00;
    386 : 00;
    387 : 00;
    388 : 00;
    389 : 10;
    38A : 10;
    38B : 10;
    38C : 10;
    38D : 10;
    38E : 10;
    38F : 10;
    390 : 10;
    391 : 10;
    392 : 10;
    393 : 10;
    394 : 10;
    395 : 10;
    396 : 10;
    397 : 10;
    398 : 10;
    399 : 10;
    39A : 10;
    39B : 10;
    39C : 10;
    39D : 10;
    39E : 10;
    39F : 10;
    3A0 : 10;
    3A1 : 10;
    3A2 : 10;
    3A3 : 10;
    3A4 : 10;
    3A5 : 10;
    3A6 : 10;
    3A7 : 10;
    3A8 : 10;
    3A9 : 10;
    3AA : 10;
    3AB : 00;
    3AC : 00;
    3AD : 00;
    3AE : 00;
    3AF : 00;
    3B0 : 00;
    3B1 : 00;
    3B2 : 00;
    3B3 : 00;
    3B4 : 00;
    3B5 : 00;
    3B6 : 00;
    3B7 : 00;
    3B8 : 00;
    3B9 : 00;
    3BA : 00;
    3BB : 00;
    3BC : 00;
    3BD : 00;
    3BE : 00;
    3BF : 00;
    3C0 : 00;
    3C1 : 00;
    3C2 : 00;
    3C3 : 00;
    3C4 : 00;
    3C5 : 00;
    3C6 : 00;
    3C7 : 00;
    3C8 : 00;
    3C9 : 00;
    3CA : 00;
    3CB : 00;
    3CC : 00;
    3CD : 00;
    3CE : 00;
    3CF : 00;
    3D0 : 00;
    3D1 : 00;
    3D2 : 00;
    3D3 : 00;
    3D4 : 00;
    3D5 : 00;
    3D6 : 00;
    3D7 : 00;
    3D8 : 00;
    3D9 : 00;
    3DA : 00;
    3DB : 00;
    3DC : 00;
    3DD : 00;
    3DE : 00;
    3DF : 00;
    3E0 : 00;
    3E1 : 00;
    3E2 : 00;
    3E3 : 00;
    3E4 : 00;
    3E5 : 00;
    3E6 : 00;
    3E7 : 00;
    3E8 : 00;
    3E9 : 00;
    3EA : 00;
    3EB : 00;
    3EC : 00;
    3ED : 00;
    3EE : 00;
    3EF : 00;
    3F0 : 00;
    3F1 : 00;
    3F2 : 00;
    3F3 : 00;
    3F4 : 00;
    3F5 : 00;
    3F6 : 00;
    3F7 : 00;
    3F8 : 00;
    3F9 : 00;
    3FA : 00;
    3FB : 00;
    3FC : 00;
    3FD : 00;
    3FE : 00;
    3FF : 00;
    400 : 00;
    401 : 00;
    402 : 00;
    403 : 00;
    404 : 00;
    405 : 00;
    406 : 00;
    407 : 00;
    408 : 00;
    409 : 00;
    40A : 00;
    40B : 00;
    40C : 00;
    40D : 00;
    40E : 00;
    40F : 00;
    410 : 00;
    411 : 00;
    412 : 00;
    413 : 00;
    414 : 00;
    415 : 00;
    416 : 00;
    417 : 00;
    418 : 00;
    419 : 00;
    41A : 00;
    41B : 00;
    41C : 00;
    41D : 00;
    41E : 00;
    41F : 00;
    420 : 00;
    421 : 00;
    422 : 00;
    423 : 00;
    424 : 00;
    425 : 00;
    426 : 00;
    427 : 00;
    428 : 00;
    429 : 00;
    42A : 00;
    42B : 00;
    42C : 00;
    42D : 00;
    42E : 00;
    42F : 00;
    430 : 00;
    431 : 00;
    432 : 00;
    433 : 00;
    434 : 00;
    435 : 00;
    436 : 00;
    437 : 00;
    438 : 00;
    439 : 00;
    43A : 00;
    43B : 00;
    43C : 00;
    43D : 00;
    43E : 00;
    43F : 00;
    440 : 00;
    441 : 00;
    442 : 00;
    443 : 00;
    444 : 00;
    445 : 00;
    446 : 00;
    447 : 00;
    448 : 10;
    449 : 10;
    44A : 10;
    44B : 10;
    44C : 10;
    44D : 10;
    44E : 10;
    44F : 10;
    450 : 10;
    451 : 10;
    452 : 10;
    453 : 10;
    454 : 10;
    455 : 10;
    456 : 10;
    457 : 10;
    458 : 00;
    459 : 00;
    45A : 00;
    45B : 00;
    45C : 00;
    45D : 00;
    45E : 00;
    45F : 00;
    460 : 00;
    461 : 00;
    462 : 00;
    463 : 00;
    464 : 00;
    465 : 00;
    466 : 00;
    467 : 00;
    468 : 00;
    469 : 00;
    46A : 00;
    46B : 00;
    46C : 00;
    46D : 00;
    46E : 00;
    46F : 00;
    470 : 00;
    471 : 00;
    472 : 00;
    473 : 00;
    474 : 00;
    475 : 00;
    476 : 00;
    477 : 00;
    478 : 00;
    479 : 00;
    47A : 00;
    47B : 00;
    47C : 00;
    47D : 00;
    47E : 00;
    47F : 00;
    480 : 00;
    481 : 00;
    482 : 00;
    483 : 00;
    484 : 00;
    485 : 00;
    486 : 00;
    487 : 00;
    488 : 00;
    489 : 00;
    48A : 00;
    48B : 00;
    48C : 00;
    48D : 00;
    48E : 00;
    48F : 00;
    490 : 00;
    491 : 00;
    492 : 00;
    493 : 00;
    494 : 00;
    495 : 00;
    496 : 00;
    497 : 00;
    498 : 00;
    499 : 00;
    49A : 00;
    49B : 00;
    49C : 00;
    49D : 00;
    49E : 00;
    49F : 00;
    4A0 : 00;
    4A1 : 00;
    4A2 : 00;
    4A3 : 00;
    4A4 : 00;
    4A5 : 00;
    4A6 : 00;
    4A7 : 00;
    4A8 : 00;
    4A9 : 00;
    4AA : 00;
    4AB : 00;
    4AC : 00;
    4AD : 00;
    4AE : 00;
    4AF : 00;
    4B0 : 00;
    4B1 : 00;
    4B2 : 00;
    4B3 : 00;
    4B4 : 00;
    4B5 : 00;
    4B6 : 00;
    4B7 : 00;
    4B8 : 00;
    4B9 : 00;
    4BA : 00;
    4BB : 00;
    4BC : 00;
    4BD : 00;
    4BE : 00;
    4BF : 00;
    4C0 : 00;
    4C1 : 00;
    4C2 : 00;
    4C3 : 00;
    4C4 : 00;
    4C5 : 00;
    4C6 : 00;
    4C7 : 00;
    4C8 : 00;
    4C9 : 00;
    4CA : 00;
    4CB : 00;
    4CC : 00;
    4CD : 00;
    4CE : 00;
    4CF : 00;
    4D0 : 00;
    4D1 : 00;
    4D2 : 00;
    4D3 : 00;
    4D4 : 00;
    4D5 : 00;
    4D6 : 00;
    4D7 : 00;
    4D8 : 00;
    4D9 : 00;
    4DA : 00;
    4DB : 00;
    4DC : 00;
    4DD : 00;
    4DE : 00;
    4DF : 00;
    4E0 : 00;
    4E1 : 00;
    4E2 : 00;
    4E3 : 00;
    4E4 : 00;
    4E5 : 00;
    4E6 : 00;
    4E7 : 00;
    4E8 : 01;
    4E9 : 01;
    4EA : 01;
    4EB : 01;
    4EC : 01;
    4ED : 01;
    4EE : 01;
    4EF : 01;
    4F0 : 01;
    4F1 : 01;
    4F2 : 01;
    4F3 : 01;
    4F4 : 01;
    4F5 : 01;
    4F6 : 01;
    4F7 : 01;
    4F8 : 01;
    4F9 : 01;
    4FA : 01;
    4FB : 01;
    4FC : 01;
    4FD : 01;
    4FE : 01;
    4FF : 01;
    500 : 01;
    501 : 01;
    502 : 01;
    503 : 01;
    504 : 01;
    505 : 00;
    506 : 00;
    507 : 00;
    508 : 00;
    509 : 01;
    50A : 01;
    50B : 01;
    50C : 01;
    50D : 01;
    50E : 01;
    50F : 01;
    510 : 01;
    511 : 01;
    512 : 01;
    513 : 01;
    514 : 01;
    515 : 01;
    516 : 01;
    517 : 01;
    518 : 01;
    519 : 01;
    51A : 01;
    51B : 01;
    51C : 01;
    51D : 01;
    51E : 01;
    51F : 01;
    520 : 01;
    521 : 01;
    522 : 01;
    523 : 01;
    524 : 01;
    525 : 00;
    526 : 00;
    527 : 00;
    528 : 00;
    529 : 00;
    52A : 00;
    52B : 00;
    52C : 00;
    52D : 00;
    52E : 00;
    52F : 00;
    530 : 00;
    531 : 00;
    532 : 00;
    533 : 00;
    534 : 00;
    535 : 00;
    536 : 00;
    537 : 00;
    538 : 00;
    539 : 00;
    53A : 00;
    53B : 00;
    53C : 00;
    53D : 00;
    53E : 00;
    53F : 00;
    540 : 00;
    541 : 00;
    542 : 00;
    543 : 00;
    544 : 00;
    545 : 00;
    546 : 00;
    547 : 00;
    548 : 00;
    549 : 00;
    54A : 00;
    54B : 00;
    54C : 00;
    54D : 00;
    54E : 00;
    54F : 00;
    550 : 00;
    551 : 00;
    552 : 00;
    553 : 00;
    554 : 00;
    555 : 00;
    556 : 00;
    557 : 00;
    558 : 00;
    559 : 00;
    55A : 00;
    55B : 00;
    55C : 00;
    55D : 00;
    55E : 01;
    55F : 01;
    560 : 01;
    561 : 01;
    562 : 01;
    563 : 01;
    564 : 01;
    565 : 01;
    566 : 01;
    567 : 01;
    568 : 01;
    569 : 01;
    56A : 01;
    56B : 01;
    56C : 01;
    56D : 01;
    56E : 01;
    56F : 01;
    570 : 01;
    571 : 01;
    572 : 01;
    573 : 01;
    574 : 01;
    575 : 01;
    576 : 01;
    577 : 01;
    578 : 01;
    579 : 01;
    57A : 01;
    57B : 01;
    57C : 01;
    57D : 00;
    57E : 00;
    57F : 00;
    580 : 00;
    581 : 10;
    582 : 10;
    583 : 10;
    584 : 10;
    585 : 10;
    586 : 10;
    587 : 10;
    588 : 10;
    589 : 10;
    58A : 10;
    58B : 10;
    58C : 10;
    58D : 10;
    58E : 10;
    58F : 10;
    590 : 10;
    591 : 00;
    592 : 00;
    593 : 00;
    594 : 00;
    595 : 01;
    596 : 01;
    597 : 01;
    598 : 01;
    599 : 01;
    59A : 01;
    59B : 01;
    59C : 01;
    59D : 01;
    59E : 01;
    59F : 01;
    5A0 : 01;
    5A1 : 01;
    5A2 : 01;
    5A3 : 01;
    5A4 : 01;
    5A5 : 01;
    5A6 : 01;
    5A7 : 01;
    5A8 : 01;
    5A9 : 01;
    5AA : 01;
    5AB : 01;
    5AC : 01;
    5AD : 01;
    5AE : 01;
    5AF : 01;
    5B0 : 01;
    5B1 : 01;
    5B2 : 00;
    5B3 : 00;
    5B4 : 00;
    5B5 : 00;
    5B6 : 00;
    5B7 : 00;
    5B8 : 00;
    5B9 : 00;
    5BA : 00;
    5BB : 00;
    5BC : 00;
    5BD : 00;
    5BE : 00;
    5BF : 00;
    5C0 : 00;
    5C1 : 00;
    5C2 : 00;
    5C3 : 00;
    5C4 : 00;
    5C5 : 00;
    5C6 : 00;
    5C7 : 00;
    5C8 : 00;
    5C9 : 00;
    5CA : 00;
    5CB : 00;
    5CC : 00;
    5CD : 00;
    5CE : 00;
    5CF : 00;
    5D0 : 00;
    5D1 : 00;
    5D2 : 00;
    5D3 : 00;
    5D4 : 00;
    5D5 : 00;
    5D6 : 00;
    5D7 : 00;
    5D8 : 00;
    5D9 : 01;
    5DA : 01;
    5DB : 01;
    5DC : 01;
    5DD : 01;
    5DE : 01;
    5DF : 01;
    5E0 : 01;
    5E1 : 01;
    5E2 : 01;
    5E3 : 01;
    5E4 : 01;
    5E5 : 01;
    5E6 : 01;
    5E7 : 01;
    5E8 : 01;
    5E9 : 01;
    5EA : 01;
    5EB : 01;
    5EC : 01;
    5ED : 01;
    5EE : 01;
    5EF : 01;
    5F0 : 01;
    5F1 : 01;
    5F2 : 01;
    5F3 : 01;
    5F4 : 01;
    5F5 : 01;
    5F6 : 01;
    5F7 : 00;
    5F8 : 00;
    5F9 : 00;
    5FA : 00;
    5FB : 00;
    5FC : 00;
    5FD : 00;
    5FE : 00;
    5FF : 00;
    600 : 00;
    601 : 00;
    602 : 00;
    603 : 00;
    604 : 00;
    605 : 00;
    606 : 00;
    607 : 00;
    608 : 00;
    609 : 00;
    60A : 00;
    60B : 00;
    60C : 00;
    60D : 00;
    60E : 00;
    60F : 00;
    610 : 00;
    611 : 00;
    612 : 00;
    613 : 00;
    614 : 00;
    615 : 00;
    616 : 00;
    617 : 00;
    618 : 00;
    619 : 00;
    61A : 00;
    61B : 00;
    61C : 00;
    61D : 00;
    61E : 00;
    61F : 00;
    620 : 00;
    621 : 01;
    622 : 01;
    623 : 01;
    624 : 01;
    625 : 01;
    626 : 01;
    627 : 01;
    628 : 01;
    629 : 01;
    62A : 01;
    62B : 01;
    62C : 01;
    62D : 01;
    62E : 01;
    62F : 01;
    630 : 01;
    631 : 01;
    632 : 01;
    633 : 01;
    634 : 01;
    635 : 01;
    636 : 01;
    637 : 01;
    638 : 01;
    639 : 01;
    63A : 01;
    63B : 01;
    63C : 01;
    63D : 01;
    63E : 00;
    63F : 00;
    640 : 00;
    641 : 00;
    642 : 01;
    643 : 01;
    644 : 01;
    645 : 01;
    646 : 01;
    647 : 01;
    648 : 01;
    649 : 01;
    64A : 01;
    64B : 01;
    64C : 01;
    64D : 01;
    64E : 01;
    64F : 01;
    650 : 01;
    651 : 01;
    652 : 01;
    653 : 01;
    654 : 01;
    655 : 01;
    656 : 01;
    657 : 01;
    658 : 01;
    659 : 01;
    65A : 01;
    65B : 01;
    65C : 01;
    65D : 01;
    65E : 00;
    65F : 00;
    660 : 00;
    661 : 00;
    662 : 00;
    663 : 00;
    664 : 00;
    665 : 00;
    666 : 00;
    667 : 00;
    668 : 00;
    669 : 00;
    66A : 00;
    66B : 00;
    66C : 00;
    66D : 00;
    66E : 00;
    66F : 00;
    670 : 00;
    671 : 00;
    672 : 00;
    673 : 00;
    674 : 00;
    675 : 00;
    676 : 00;
    677 : 00;
    678 : 00;
    679 : 00;
    67A : 00;
    67B : 00;
    67C : 00;
    67D : 00;
    67E : 00;
    67F : 00;
    680 : 00;
    681 : 00;
    682 : 00;
    683 : 00;
    684 : 00;
    685 : 00;
    686 : 00;
    687 : 00;
    688 : 00;
    689 : 00;
    68A : 00;
    68B : 00;
    68C : 00;
    68D : 00;
    68E : 00;
    68F : 00;
    690 : 00;
    691 : 00;
    692 : 00;
    693 : 00;
    694 : 00;
    695 : 00;
    696 : 00;
    697 : 01;
    698 : 01;
    699 : 01;
    69A : 01;
    69B : 01;
    69C : 01;
    69D : 01;
    69E : 01;
    69F : 01;
    6A0 : 01;
    6A1 : 01;
    6A2 : 01;
    6A3 : 01;
    6A4 : 01;
    6A5 : 01;
    6A6 : 01;
    6A7 : 01;
    6A8 : 01;
    6A9 : 01;
    6AA : 01;
    6AB : 01;
    6AC : 01;
    6AD : 01;
    6AE : 01;
    6AF : 01;
    6B0 : 01;
    6B1 : 01;
    6B2 : 01;
    6B3 : 01;
    6B4 : 01;
    6B5 : 01;
    6B6 : 00;
    6B7 : 00;
    6B8 : 00;
    6B9 : 00;
    6BA : 10;
    6BB : 10;
    6BC : 10;
    6BD : 10;
    6BE : 10;
    6BF : 10;
    6C0 : 10;
    6C1 : 10;
    6C2 : 10;
    6C3 : 10;
    6C4 : 10;
    6C5 : 10;
    6C6 : 10;
    6C7 : 10;
    6C8 : 10;
    6C9 : 10;
    6CA : 00;
    6CB : 00;
    6CC : 00;
    6CD : 00;
    6CE : 01;
    6CF : 01;
    6D0 : 01;
    6D1 : 01;
    6D2 : 01;
    6D3 : 01;
    6D4 : 01;
    6D5 : 01;
    6D6 : 01;
    6D7 : 01;
    6D8 : 01;
    6D9 : 01;
    6DA : 01;
    6DB : 01;
    6DC : 01;
    6DD : 01;
    6DE : 01;
    6DF : 01;
    6E0 : 01;
    6E1 : 01;
    6E2 : 01;
    6E3 : 01;
    6E4 : 01;
    6E5 : 01;
    6E6 : 01;
    6E7 : 01;
    6E8 : 01;
    6E9 : 01;
    6EA : 01;
    6EB : 00;
    6EC : 00;
    6ED : 00;
    6EE : 00;
    6EF : 00;
    6F0 : 00;
    6F1 : 00;
    6F2 : 00;
    6F3 : 00;
    6F4 : 00;
    6F5 : 00;
    6F6 : 00;
    6F7 : 00;
    6F8 : 00;
    6F9 : 00;
    6FA : 00;
    6FB : 00;
    6FC : 00;
    6FD : 00;
    6FE : 00;
    6FF : 00;
    700 : 00;
    701 : 00;
    702 : 00;
    703 : 00;
    704 : 00;
    705 : 00;
    706 : 00;
    707 : 00;
    708 : 00;
    709 : 00;
    70A : 00;
    70B : 00;
    70C : 00;
    70D : 00;
    70E : 00;
    70F : 00;
    710 : 00;
    711 : 00;
    712 : 01;
    713 : 01;
    714 : 01;
    715 : 01;
    716 : 01;
    717 : 01;
    718 : 01;
    719 : 01;
    71A : 01;
    71B : 01;
    71C : 01;
    71D : 01;
    71E : 01;
    71F : 01;
    720 : 01;
    721 : 01;
    722 : 01;
    723 : 01;
    724 : 01;
    725 : 01;
    726 : 01;
    727 : 01;
    728 : 01;
    729 : 01;
    72A : 01;
    72B : 01;
    72C : 01;
    72D : 01;
    72E : 01;
    72F : 01;
    730 : 00;
    731 : 00;
    732 : 00;
    733 : 00;
    734 : 00;
    735 : 00;
    736 : 00;
    737 : 00;
    738 : 00;
    739 : 00;
    73A : 00;
    73B : 00;
    73C : 00;
    73D : 00;
    73E : 00;
    73F : 00;
    740 : 00;
    741 : 00;
    742 : 00;
    743 : 00;
    744 : 00;
    745 : 00;
    746 : 00;
    747 : 00;
    748 : 00;
    749 : 00;
    74A : 00;
    74B : 00;
    74C : 00;
    74D : 00;
    74E : 00;
    74F : 00;
    750 : 00;
    751 : 00;
    752 : 00;
    753 : 00;
    754 : 00;
    755 : 00;
    756 : 00;
    757 : 00;
    758 : 00;
    759 : 00;
    75A : 01;
    75B : 01;
    75C : 01;
    75D : 01;
    75E : 01;
    75F : 01;
    760 : 01;
    761 : 01;
    762 : 01;
    763 : 01;
    764 : 01;
    765 : 01;
    766 : 01;
    767 : 01;
    768 : 01;
    769 : 01;
    76A : 01;
    76B : 01;
    76C : 01;
    76D : 01;
    76E : 01;
    76F : 01;
    770 : 01;
    771 : 01;
    772 : 01;
    773 : 01;
    774 : 01;
    775 : 01;
    776 : 01;
    777 : 00;
    778 : 00;
    779 : 00;
    77A : 00;
    77B : 01;
    77C : 01;
    77D : 01;
    77E : 01;
    77F : 01;
    780 : 01;
    781 : 01;
    782 : 01;
    783 : 01;
    784 : 01;
    785 : 01;
    786 : 01;
    787 : 01;
    788 : 01;
    789 : 01;
    78A : 01;
    78B : 01;
    78C : 01;
    78D : 01;
    78E : 01;
    78F : 01;
    790 : 01;
    791 : 01;
    792 : 01;
    793 : 01;
    794 : 01;
    795 : 01;
    796 : 01;
    797 : 00;
    798 : 00;
    799 : 00;
    79A : 00;
    79B : 00;
    79C : 00;
    79D : 00;
    79E : 00;
    79F : 00;
    7A0 : 00;
    7A1 : 00;
    7A2 : 00;
    7A3 : 00;
    7A4 : 00;
    7A5 : 00;
    7A6 : 00;
    7A7 : 00;
    7A8 : 00;
    7A9 : 00;
    7AA : 00;
    7AB : 00;
    7AC : 00;
    7AD : 00;
    7AE : 00;
    7AF : 00;
    7B0 : 00;
    7B1 : 00;
    7B2 : 00;
    7B3 : 00;
    7B4 : 00;
    7B5 : 00;
    7B6 : 00;
    7B7 : 00;
    7B8 : 00;
    7B9 : 00;
    7BA : 00;
    7BB : 00;
    7BC : 00;
    7BD : 00;
    7BE : 00;
    7BF : 00;
    7C0 : 00;
    7C1 : 00;
    7C2 : 00;
    7C3 : 00;
    7C4 : 00;
    7C5 : 00;
    7C6 : 00;
    7C7 : 00;
    7C8 : 00;
    7C9 : 00;
    7CA : 00;
    7CB : 00;
    7CC : 00;
    7CD : 00;
    7CE : 00;
    7CF : 00;
    7D0 : 01;
    7D1 : 01;
    7D2 : 01;
    7D3 : 01;
    7D4 : 01;
    7D5 : 01;
    7D6 : 01;
    7D7 : 01;
    7D8 : 01;
    7D9 : 01;
    7DA : 01;
    7DB : 01;
    7DC : 01;
    7DD : 01;
    7DE : 01;
    7DF : 01;
    7E0 : 01;
    7E1 : 01;
    7E2 : 01;
    7E3 : 01;
    7E4 : 01;
    7E5 : 01;
    7E6 : 01;
    7E7 : 01;
    7E8 : 01;
    7E9 : 01;
    7EA : 01;
    7EB : 01;
    7EC : 01;
    7ED : 01;
    7EE : 01;
    7EF : 00;
    7F0 : 00;
    7F1 : 00;
    7F2 : 00;
    7F3 : 10;
    7F4 : 10;
    7F5 : 10;
    7F6 : 10;
    7F7 : 10;
    7F8 : 10;
    7F9 : 10;
    7FA : 10;
    7FB : 10;
    7FC : 10;
    7FD : 10;
    7FE : 10;
    7FF : 10;
    800 : 10;
    801 : 10;
    802 : 10;
    803 : 00;
    804 : 00;
    805 : 00;
    806 : 00;
    807 : 01;
    808 : 01;
    809 : 01;
    80A : 01;
    80B : 01;
    80C : 01;
    80D : 01;
    80E : 01;
    80F : 01;
    810 : 01;
    811 : 01;
    812 : 01;
    813 : 01;
    814 : 01;
    815 : 01;
    816 : 01;
    817 : 01;
    818 : 01;
    819 : 01;
    81A : 01;
    81B : 01;
    81C : 01;
    81D : 01;
    81E : 01;
    81F : 01;
    820 : 01;
    821 : 01;
    822 : 01;
    823 : 01;
    824 : 00;
    825 : 00;
    826 : 00;
    827 : 00;
    828 : 00;
    829 : 00;
    82A : 00;
    82B : 00;
    82C : 00;
    82D : 00;
    82E : 00;
    82F : 00;
    830 : 00;
    831 : 00;
    832 : 00;
    833 : 00;
    834 : 00;
    835 : 00;
    836 : 00;
    837 : 00;
    838 : 00;
    839 : 00;
    83A : 00;
    83B : 00;
    83C : 00;
    83D : 00;
    83E : 00;
    83F : 00;
    840 : 00;
    841 : 00;
    842 : 00;
    843 : 00;
    844 : 00;
    845 : 00;
    846 : 00;
    847 : 00;
    848 : 00;
    849 : 00;
    84A : 00;
    84B : 01;
    84C : 01;
    84D : 01;
    84E : 01;
    84F : 01;
    850 : 01;
    851 : 01;
    852 : 01;
    853 : 01;
    854 : 01;
    855 : 01;
    856 : 01;
    857 : 01;
    858 : 01;
    859 : 01;
    85A : 01;
    85B : 01;
    85C : 01;
    85D : 01;
    85E : 01;
    85F : 01;
    860 : 01;
    861 : 01;
    862 : 01;
    863 : 01;
    864 : 01;
    865 : 01;
    866 : 01;
    867 : 01;
    868 : 01;
    869 : 00;
    86A : 00;
    86B : 00;
    86C : 00;
    86D : 00;
    86E : 00;
    86F : 00;
    870 : 00;
    871 : 00;
    872 : 00;
    873 : 00;
    874 : 00;
    875 : 00;
    876 : 00;
    877 : 00;
    878 : 00;
    879 : 00;
    87A : 00;
    87B : 00;
    87C : 00;
    87D : 00;
    87E : 00;
    87F : 00;
    880 : 00;
    881 : 00;
    882 : 00;
    883 : 00;
    884 : 00;
    885 : 00;
    886 : 00;
    887 : 00;
    888 : 00;
    889 : 00;
    88A : 00;
    88B : 00;
    88C : 00;
    88D : 00;
    88E : 00;
    88F : 00;
    890 : 00;
    891 : 00;
    892 : 00;
    893 : 01;
    894 : 01;
    895 : 01;
    896 : 01;
    897 : 01;
    898 : 01;
    899 : 01;
    89A : 01;
    89B : 01;
    89C : 01;
    89D : 01;
    89E : 01;
    89F : 01;
    8A0 : 01;
    8A1 : 01;
    8A2 : 01;
    8A3 : 01;
    8A4 : 01;
    8A5 : 01;
    8A6 : 01;
    8A7 : 01;
    8A8 : 01;
    8A9 : 01;
    8AA : 01;
    8AB : 01;
    8AC : 01;
    8AD : 01;
    8AE : 01;
    8AF : 01;
    8B0 : 00;
    8B1 : 00;
    8B2 : 00;
    8B3 : 00;
    8B4 : 01;
    8B5 : 01;
    8B6 : 01;
    8B7 : 01;
    8B8 : 01;
    8B9 : 01;
    8BA : 01;
    8BB : 01;
    8BC : 01;
    8BD : 01;
    8BE : 01;
    8BF : 01;
    8C0 : 01;
    8C1 : 01;
    8C2 : 01;
    8C3 : 01;
    8C4 : 01;
    8C5 : 01;
    8C6 : 01;
    8C7 : 01;
    8C8 : 01;
    8C9 : 01;
    8CA : 01;
    8CB : 01;
    8CC : 01;
    8CD : 01;
    8CE : 01;
    8CF : 01;
    8D0 : 00;
    8D1 : 00;
    8D2 : 00;
    8D3 : 01;
    8D4 : 01;
    8D5 : 01;
    8D6 : 01;
    8D7 : 01;
    8D8 : 01;
    8D9 : 01;
    8DA : 01;
    8DB : 01;
    8DC : 01;
    8DD : 01;
    8DE : 01;
    8DF : 01;
    8E0 : 01;
    8E1 : 01;
    8E2 : 01;
    8E3 : 01;
    8E4 : 01;
    8E5 : 01;
    8E6 : 01;
    8E7 : 01;
    8E8 : 01;
    8E9 : 01;
    8EA : 01;
    8EB : 01;
    8EC : 01;
    8ED : 01;
    8EE : 01;
    8EF : 01;
    8F0 : 01;
    8F1 : 01;
    8F2 : 01;
    8F3 : 01;
    8F4 : 01;
    8F5 : 01;
    8F6 : 01;
    8F7 : 01;
    8F8 : 01;
    8F9 : 01;
    8FA : 01;
    8FB : 01;
    8FC : 01;
    8FD : 01;
    8FE : 01;
    8FF : 01;
    900 : 01;
    901 : 01;
    902 : 01;
    903 : 01;
    904 : 01;
    905 : 01;
    906 : 00;
    907 : 00;
    908 : 00;
    909 : 01;
    90A : 01;
    90B : 01;
    90C : 01;
    90D : 01;
    90E : 01;
    90F : 01;
    910 : 01;
    911 : 01;
    912 : 01;
    913 : 01;
    914 : 01;
    915 : 01;
    916 : 01;
    917 : 01;
    918 : 01;
    919 : 01;
    91A : 01;
    91B : 01;
    91C : 01;
    91D : 01;
    91E : 01;
    91F : 01;
    920 : 01;
    921 : 01;
    922 : 01;
    923 : 01;
    924 : 01;
    925 : 01;
    926 : 01;
    927 : 01;
    928 : 00;
    929 : 00;
    92A : 00;
    92B : 00;
    92C : 10;
    92D : 10;
    92E : 10;
    92F : 10;
    930 : 10;
    931 : 10;
    932 : 10;
    933 : 10;
    934 : 10;
    935 : 10;
    936 : 10;
    937 : 10;
    938 : 10;
    939 : 10;
    93A : 10;
    93B : 10;
    93C : 00;
    93D : 00;
    93E : 00;
    93F : 00;
    940 : 01;
    941 : 01;
    942 : 01;
    943 : 01;
    944 : 01;
    945 : 01;
    946 : 01;
    947 : 01;
    948 : 01;
    949 : 01;
    94A : 01;
    94B : 01;
    94C : 01;
    94D : 01;
    94E : 01;
    94F : 01;
    950 : 01;
    951 : 01;
    952 : 01;
    953 : 01;
    954 : 01;
    955 : 01;
    956 : 01;
    957 : 01;
    958 : 01;
    959 : 01;
    95A : 01;
    95B : 01;
    95C : 01;
    95D : 00;
    95E : 00;
    95F : 00;
    960 : 00;
    961 : 01;
    962 : 01;
    963 : 01;
    964 : 01;
    965 : 01;
    966 : 01;
    967 : 01;
    968 : 01;
    969 : 01;
    96A : 01;
    96B : 01;
    96C : 01;
    96D : 01;
    96E : 01;
    96F : 00;
    970 : 00;
    971 : 00;
    972 : 00;
    973 : 01;
    974 : 01;
    975 : 01;
    976 : 01;
    977 : 01;
    978 : 01;
    979 : 01;
    97A : 01;
    97B : 01;
    97C : 01;
    97D : 01;
    97E : 01;
    97F : 01;
    980 : 00;
    981 : 00;
    982 : 00;
    983 : 00;
    984 : 01;
    985 : 01;
    986 : 01;
    987 : 01;
    988 : 01;
    989 : 01;
    98A : 01;
    98B : 01;
    98C : 01;
    98D : 01;
    98E : 01;
    98F : 01;
    990 : 01;
    991 : 01;
    992 : 01;
    993 : 01;
    994 : 01;
    995 : 01;
    996 : 01;
    997 : 01;
    998 : 01;
    999 : 01;
    99A : 01;
    99B : 01;
    99C : 01;
    99D : 01;
    99E : 01;
    99F : 01;
    9A0 : 01;
    9A1 : 01;
    9A2 : 00;
    9A3 : 00;
    9A4 : 00;
    9A5 : 00;
    9A6 : 01;
    9A7 : 01;
    9A8 : 01;
    9A9 : 01;
    9AA : 01;
    9AB : 01;
    9AC : 01;
    9AD : 01;
    9AE : 01;
    9AF : 01;
    9B0 : 01;
    9B1 : 01;
    9B2 : 01;
    9B3 : 01;
    9B4 : 01;
    9B5 : 01;
    9B6 : 01;
    9B7 : 01;
    9B8 : 01;
    9B9 : 01;
    9BA : 01;
    9BB : 01;
    9BC : 01;
    9BD : 01;
    9BE : 01;
    9BF : 01;
    9C0 : 01;
    9C1 : 01;
    9C2 : 01;
    9C3 : 01;
    9C4 : 00;
    9C5 : 00;
    9C6 : 00;
    9C7 : 00;
    9C8 : 00;
    9C9 : 00;
    9CA : 00;
    9CB : 00;
    9CC : 01;
    9CD : 01;
    9CE : 01;
    9CF : 01;
    9D0 : 01;
    9D1 : 01;
    9D2 : 01;
    9D3 : 01;
    9D4 : 01;
    9D5 : 01;
    9D6 : 01;
    9D7 : 01;
    9D8 : 01;
    9D9 : 01;
    9DA : 01;
    9DB : 01;
    9DC : 01;
    9DD : 01;
    9DE : 01;
    9DF : 01;
    9E0 : 01;
    9E1 : 01;
    9E2 : 01;
    9E3 : 01;
    9E4 : 01;
    9E5 : 01;
    9E6 : 01;
    9E7 : 01;
    9E8 : 01;
    9E9 : 00;
    9EA : 00;
    9EB : 00;
    9EC : 00;
    9ED : 01;
    9EE : 01;
    9EF : 01;
    9F0 : 01;
    9F1 : 01;
    9F2 : 01;
    9F3 : 01;
    9F4 : 01;
    9F5 : 01;
    9F6 : 01;
    9F7 : 01;
    9F8 : 01;
    9F9 : 01;
    9FA : 01;
    9FB : 01;
    9FC : 01;
    9FD : 01;
    9FE : 01;
    9FF : 01;
    A00 : 01;
    A01 : 01;
    A02 : 01;
    A03 : 01;
    A04 : 01;
    A05 : 01;
    A06 : 01;
    A07 : 01;
    A08 : 01;
    A09 : 00;
    A0A : 00;
    A0B : 00;
    A0C : 01;
    A0D : 01;
    A0E : 01;
    A0F : 01;
    A10 : 01;
    A11 : 01;
    A12 : 01;
    A13 : 01;
    A14 : 01;
    A15 : 01;
    A16 : 01;
    A17 : 01;
    A18 : 01;
    A19 : 01;
    A1A : 01;
    A1B : 01;
    A1C : 01;
    A1D : 01;
    A1E : 01;
    A1F : 01;
    A20 : 01;
    A21 : 01;
    A22 : 01;
    A23 : 01;
    A24 : 01;
    A25 : 01;
    A26 : 01;
    A27 : 01;
    A28 : 01;
    A29 : 01;
    A2A : 01;
    A2B : 01;
    A2C : 01;
    A2D : 01;
    A2E : 01;
    A2F : 01;
    A30 : 01;
    A31 : 01;
    A32 : 01;
    A33 : 01;
    A34 : 01;
    A35 : 01;
    A36 : 01;
    A37 : 01;
    A38 : 01;
    A39 : 01;
    A3A : 01;
    A3B : 01;
    A3C : 01;
    A3D : 01;
    A3E : 01;
    A3F : 00;
    A40 : 00;
    A41 : 00;
    A42 : 01;
    A43 : 01;
    A44 : 01;
    A45 : 01;
    A46 : 01;
    A47 : 01;
    A48 : 01;
    A49 : 01;
    A4A : 01;
    A4B : 01;
    A4C : 01;
    A4D : 01;
    A4E : 01;
    A4F : 01;
    A50 : 01;
    A51 : 01;
    A52 : 01;
    A53 : 01;
    A54 : 01;
    A55 : 01;
    A56 : 01;
    A57 : 01;
    A58 : 01;
    A59 : 01;
    A5A : 01;
    A5B : 01;
    A5C : 01;
    A5D : 01;
    A5E : 01;
    A5F : 01;
    A60 : 01;
    A61 : 00;
    A62 : 00;
    A63 : 00;
    A64 : 00;
    A65 : 10;
    A66 : 10;
    A67 : 10;
    A68 : 10;
    A69 : 10;
    A6A : 10;
    A6B : 10;
    A6C : 10;
    A6D : 10;
    A6E : 10;
    A6F : 10;
    A70 : 10;
    A71 : 10;
    A72 : 10;
    A73 : 10;
    A74 : 10;
    A75 : 00;
    A76 : 00;
    A77 : 00;
    A78 : 00;
    A79 : 01;
    A7A : 01;
    A7B : 01;
    A7C : 01;
    A7D : 01;
    A7E : 01;
    A7F : 01;
    A80 : 01;
    A81 : 01;
    A82 : 01;
    A83 : 01;
    A84 : 01;
    A85 : 01;
    A86 : 01;
    A87 : 01;
    A88 : 01;
    A89 : 01;
    A8A : 01;
    A8B : 01;
    A8C : 01;
    A8D : 01;
    A8E : 01;
    A8F : 01;
    A90 : 01;
    A91 : 01;
    A92 : 01;
    A93 : 01;
    A94 : 01;
    A95 : 01;
    A96 : 00;
    A97 : 00;
    A98 : 00;
    A99 : 00;
    A9A : 01;
    A9B : 01;
    A9C : 01;
    A9D : 01;
    A9E : 01;
    A9F : 01;
    AA0 : 01;
    AA1 : 01;
    AA2 : 01;
    AA3 : 01;
    AA4 : 01;
    AA5 : 01;
    AA6 : 01;
    AA7 : 01;
    AA8 : 00;
    AA9 : 00;
    AAA : 00;
    AAB : 00;
    AAC : 01;
    AAD : 01;
    AAE : 01;
    AAF : 01;
    AB0 : 01;
    AB1 : 01;
    AB2 : 01;
    AB3 : 01;
    AB4 : 01;
    AB5 : 01;
    AB6 : 01;
    AB7 : 01;
    AB8 : 01;
    AB9 : 00;
    ABA : 00;
    ABB : 00;
    ABC : 00;
    ABD : 01;
    ABE : 01;
    ABF : 01;
    AC0 : 01;
    AC1 : 01;
    AC2 : 01;
    AC3 : 01;
    AC4 : 01;
    AC5 : 01;
    AC6 : 01;
    AC7 : 01;
    AC8 : 01;
    AC9 : 01;
    ACA : 01;
    ACB : 01;
    ACC : 01;
    ACD : 01;
    ACE : 01;
    ACF : 01;
    AD0 : 01;
    AD1 : 01;
    AD2 : 01;
    AD3 : 01;
    AD4 : 01;
    AD5 : 01;
    AD6 : 01;
    AD7 : 01;
    AD8 : 01;
    AD9 : 01;
    ADA : 01;
    ADB : 00;
    ADC : 00;
    ADD : 00;
    ADE : 00;
    ADF : 01;
    AE0 : 01;
    AE1 : 01;
    AE2 : 01;
    AE3 : 01;
    AE4 : 01;
    AE5 : 01;
    AE6 : 01;
    AE7 : 01;
    AE8 : 01;
    AE9 : 01;
    AEA : 01;
    AEB : 01;
    AEC : 01;
    AED : 01;
    AEE : 01;
    AEF : 01;
    AF0 : 01;
    AF1 : 01;
    AF2 : 01;
    AF3 : 01;
    AF4 : 01;
    AF5 : 01;
    AF6 : 01;
    AF7 : 01;
    AF8 : 01;
    AF9 : 01;
    AFA : 01;
    AFB : 01;
    AFC : 01;
    AFD : 00;
    AFE : 00;
    AFF : 00;
    B00 : 00;
    B01 : 00;
    B02 : 00;
    B03 : 00;
    B04 : 00;
    B05 : 01;
    B06 : 01;
    B07 : 01;
    B08 : 01;
    B09 : 01;
    B0A : 01;
    B0B : 01;
    B0C : 01;
    B0D : 01;
    B0E : 01;
    B0F : 01;
    B10 : 01;
    B11 : 01;
    B12 : 01;
    B13 : 01;
    B14 : 01;
    B15 : 01;
    B16 : 01;
    B17 : 01;
    B18 : 01;
    B19 : 01;
    B1A : 01;
    B1B : 01;
    B1C : 01;
    B1D : 01;
    B1E : 01;
    B1F : 01;
    B20 : 01;
    B21 : 01;
    B22 : 00;
    B23 : 00;
    B24 : 00;
    B25 : 00;
    B26 : 01;
    B27 : 01;
    B28 : 01;
    B29 : 01;
    B2A : 01;
    B2B : 01;
    B2C : 01;
    B2D : 01;
    B2E : 01;
    B2F : 01;
    B30 : 01;
    B31 : 01;
    B32 : 01;
    B33 : 01;
    B34 : 01;
    B35 : 01;
    B36 : 01;
    B37 : 01;
    B38 : 01;
    B39 : 01;
    B3A : 01;
    B3B : 01;
    B3C : 01;
    B3D : 01;
    B3E : 01;
    B3F : 01;
    B40 : 01;
    B41 : 01;
    B42 : 00;
    B43 : 00;
    B44 : 00;
    B45 : 01;
    B46 : 01;
    B47 : 01;
    B48 : 01;
    B49 : 01;
    B4A : 01;
    B4B : 01;
    B4C : 01;
    B4D : 01;
    B4E : 01;
    B4F : 01;
    B50 : 01;
    B51 : 01;
    B52 : 01;
    B53 : 01;
    B54 : 01;
    B55 : 01;
    B56 : 01;
    B57 : 01;
    B58 : 01;
    B59 : 01;
    B5A : 01;
    B5B : 01;
    B5C : 01;
    B5D : 01;
    B5E : 01;
    B5F : 01;
    B60 : 01;
    B61 : 01;
    B62 : 01;
    B63 : 01;
    B64 : 01;
    B65 : 01;
    B66 : 01;
    B67 : 01;
    B68 : 01;
    B69 : 01;
    B6A : 01;
    B6B : 01;
    B6C : 01;
    B6D : 01;
    B6E : 01;
    B6F : 01;
    B70 : 01;
    B71 : 01;
    B72 : 01;
    B73 : 01;
    B74 : 01;
    B75 : 01;
    B76 : 01;
    B77 : 01;
    B78 : 00;
    B79 : 00;
    B7A : 00;
    B7B : 01;
    B7C : 01;
    B7D : 01;
    B7E : 01;
    B7F : 01;
    B80 : 01;
    B81 : 01;
    B82 : 01;
    B83 : 01;
    B84 : 01;
    B85 : 01;
    B86 : 01;
    B87 : 01;
    B88 : 01;
    B89 : 01;
    B8A : 01;
    B8B : 01;
    B8C : 01;
    B8D : 01;
    B8E : 01;
    B8F : 01;
    B90 : 01;
    B91 : 01;
    B92 : 01;
    B93 : 01;
    B94 : 01;
    B95 : 01;
    B96 : 01;
    B97 : 01;
    B98 : 01;
    B99 : 01;
    B9A : 00;
    B9B : 00;
    B9C : 00;
    B9D : 00;
    B9E : 10;
    B9F : 10;
    BA0 : 10;
    BA1 : 10;
    BA2 : 10;
    BA3 : 10;
    BA4 : 10;
    BA5 : 10;
    BA6 : 10;
    BA7 : 10;
    BA8 : 10;
    BA9 : 10;
    BAA : 10;
    BAB : 10;
    BAC : 10;
    BAD : 10;
    BAE : 00;
    BAF : 00;
    BB0 : 00;
    BB1 : 00;
    BB2 : 01;
    BB3 : 01;
    BB4 : 01;
    BB5 : 01;
    BB6 : 01;
    BB7 : 01;
    BB8 : 01;
    BB9 : 01;
    BBA : 01;
    BBB : 01;
    BBC : 01;
    BBD : 01;
    BBE : 01;
    BBF : 01;
    BC0 : 01;
    BC1 : 01;
    BC2 : 01;
    BC3 : 01;
    BC4 : 01;
    BC5 : 01;
    BC6 : 01;
    BC7 : 01;
    BC8 : 01;
    BC9 : 01;
    BCA : 01;
    BCB : 01;
    BCC : 01;
    BCD : 01;
    BCE : 01;
    BCF : 00;
    BD0 : 00;
    BD1 : 00;
    BD2 : 00;
    BD3 : 01;
    BD4 : 01;
    BD5 : 01;
    BD6 : 01;
    BD7 : 01;
    BD8 : 01;
    BD9 : 01;
    BDA : 01;
    BDB : 01;
    BDC : 01;
    BDD : 01;
    BDE : 01;
    BDF : 01;
    BE0 : 01;
    BE1 : 00;
    BE2 : 00;
    BE3 : 00;
    BE4 : 00;
    BE5 : 01;
    BE6 : 01;
    BE7 : 01;
    BE8 : 01;
    BE9 : 01;
    BEA : 01;
    BEB : 01;
    BEC : 01;
    BED : 01;
    BEE : 01;
    BEF : 01;
    BF0 : 01;
    BF1 : 01;
    BF2 : 00;
    BF3 : 00;
    BF4 : 00;
    BF5 : 00;
    BF6 : 01;
    BF7 : 01;
    BF8 : 01;
    BF9 : 01;
    BFA : 01;
    BFB : 01;
    BFC : 01;
    BFD : 01;
    BFE : 01;
    BFF : 01;
    C00 : 01;
    C01 : 01;
    C02 : 01;
    C03 : 01;
    C04 : 01;
    C05 : 01;
    C06 : 01;
    C07 : 01;
    C08 : 01;
    C09 : 01;
    C0A : 01;
    C0B : 01;
    C0C : 01;
    C0D : 01;
    C0E : 01;
    C0F : 01;
    C10 : 01;
    C11 : 01;
    C12 : 01;
    C13 : 01;
    C14 : 00;
    C15 : 00;
    C16 : 00;
    C17 : 00;
    C18 : 01;
    C19 : 01;
    C1A : 01;
    C1B : 01;
    C1C : 01;
    C1D : 01;
    C1E : 01;
    C1F : 01;
    C20 : 01;
    C21 : 01;
    C22 : 01;
    C23 : 01;
    C24 : 01;
    C25 : 01;
    C26 : 01;
    C27 : 01;
    C28 : 01;
    C29 : 01;
    C2A : 01;
    C2B : 01;
    C2C : 01;
    C2D : 01;
    C2E : 01;
    C2F : 01;
    C30 : 01;
    C31 : 01;
    C32 : 01;
    C33 : 01;
    C34 : 01;
    C35 : 01;
    C36 : 00;
    C37 : 00;
    C38 : 00;
    C39 : 00;
    C3A : 00;
    C3B : 00;
    C3C : 00;
    C3D : 00;
    C3E : 01;
    C3F : 01;
    C40 : 01;
    C41 : 01;
    C42 : 01;
    C43 : 01;
    C44 : 01;
    C45 : 01;
    C46 : 01;
    C47 : 01;
    C48 : 01;
    C49 : 01;
    C4A : 01;
    C4B : 01;
    C4C : 01;
    C4D : 01;
    C4E : 01;
    C4F : 01;
    C50 : 01;
    C51 : 01;
    C52 : 01;
    C53 : 01;
    C54 : 01;
    C55 : 01;
    C56 : 01;
    C57 : 01;
    C58 : 01;
    C59 : 01;
    C5A : 01;
    C5B : 00;
    C5C : 00;
    C5D : 00;
    C5E : 00;
    C5F : 01;
    C60 : 01;
    C61 : 01;
    C62 : 01;
    C63 : 01;
    C64 : 01;
    C65 : 01;
    C66 : 01;
    C67 : 01;
    C68 : 01;
    C69 : 01;
    C6A : 01;
    C6B : 01;
    C6C : 01;
    C6D : 01;
    C6E : 01;
    C6F : 01;
    C70 : 01;
    C71 : 01;
    C72 : 01;
    C73 : 01;
    C74 : 01;
    C75 : 01;
    C76 : 01;
    C77 : 01;
    C78 : 01;
    C79 : 01;
    C7A : 01;
    C7B : 00;
    C7C : 00;
    C7D : 00;
    C7E : 01;
    C7F : 01;
    C80 : 01;
    C81 : 01;
    C82 : 01;
    C83 : 01;
    C84 : 01;
    C85 : 01;
    C86 : 01;
    C87 : 01;
    C88 : 01;
    C89 : 01;
    C8A : 01;
    C8B : 01;
    C8C : 01;
    C8D : 01;
    C8E : 01;
    C8F : 01;
    C90 : 01;
    C91 : 01;
    C92 : 01;
    C93 : 01;
    C94 : 01;
    C95 : 01;
    C96 : 01;
    C97 : 01;
    C98 : 01;
    C99 : 01;
    C9A : 01;
    C9B : 01;
    C9C : 01;
    C9D : 01;
    C9E : 01;
    C9F : 01;
    CA0 : 01;
    CA1 : 01;
    CA2 : 01;
    CA3 : 01;
    CA4 : 01;
    CA5 : 01;
    CA6 : 01;
    CA7 : 01;
    CA8 : 01;
    CA9 : 01;
    CAA : 01;
    CAB : 01;
    CAC : 01;
    CAD : 01;
    CAE : 01;
    CAF : 01;
    CB0 : 01;
    CB1 : 00;
    CB2 : 00;
    CB3 : 00;
    CB4 : 01;
    CB5 : 01;
    CB6 : 01;
    CB7 : 01;
    CB8 : 01;
    CB9 : 01;
    CBA : 01;
    CBB : 01;
    CBC : 01;
    CBD : 01;
    CBE : 01;
    CBF : 01;
    CC0 : 01;
    CC1 : 01;
    CC2 : 01;
    CC3 : 01;
    CC4 : 01;
    CC5 : 01;
    CC6 : 01;
    CC7 : 01;
    CC8 : 01;
    CC9 : 01;
    CCA : 01;
    CCB : 01;
    CCC : 01;
    CCD : 01;
    CCE : 01;
    CCF : 01;
    CD0 : 01;
    CD1 : 01;
    CD2 : 01;
    CD3 : 00;
    CD4 : 00;
    CD5 : 00;
    CD6 : 00;
    CD7 : 10;
    CD8 : 10;
    CD9 : 10;
    CDA : 10;
    CDB : 10;
    CDC : 10;
    CDD : 10;
    CDE : 10;
    CDF : 10;
    CE0 : 10;
    CE1 : 10;
    CE2 : 10;
    CE3 : 10;
    CE4 : 10;
    CE5 : 10;
    CE6 : 10;
    CE7 : 00;
    CE8 : 00;
    CE9 : 00;
    CEA : 00;
    CEB : 01;
    CEC : 01;
    CED : 01;
    CEE : 01;
    CEF : 01;
    CF0 : 01;
    CF1 : 01;
    CF2 : 01;
    CF3 : 01;
    CF4 : 01;
    CF5 : 01;
    CF6 : 01;
    CF7 : 01;
    CF8 : 01;
    CF9 : 01;
    CFA : 01;
    CFB : 01;
    CFC : 01;
    CFD : 01;
    CFE : 01;
    CFF : 01;
    D00 : 01;
    D01 : 01;
    D02 : 01;
    D03 : 01;
    D04 : 01;
    D05 : 01;
    D06 : 01;
    D07 : 01;
    D08 : 00;
    D09 : 00;
    D0A : 00;
    D0B : 00;
    D0C : 01;
    D0D : 01;
    D0E : 01;
    D0F : 01;
    D10 : 01;
    D11 : 01;
    D12 : 01;
    D13 : 01;
    D14 : 01;
    D15 : 01;
    D16 : 01;
    D17 : 01;
    D18 : 01;
    D19 : 01;
    D1A : 00;
    D1B : 00;
    D1C : 00;
    D1D : 00;
    D1E : 01;
    D1F : 01;
    D20 : 01;
    D21 : 01;
    D22 : 01;
    D23 : 01;
    D24 : 01;
    D25 : 01;
    D26 : 01;
    D27 : 01;
    D28 : 01;
    D29 : 01;
    D2A : 01;
    D2B : 00;
    D2C : 00;
    D2D : 00;
    D2E : 00;
    D2F : 01;
    D30 : 01;
    D31 : 01;
    D32 : 01;
    D33 : 01;
    D34 : 01;
    D35 : 01;
    D36 : 01;
    D37 : 01;
    D38 : 01;
    D39 : 01;
    D3A : 01;
    D3B : 01;
    D3C : 01;
    D3D : 01;
    D3E : 01;
    D3F : 01;
    D40 : 01;
    D41 : 01;
    D42 : 01;
    D43 : 01;
    D44 : 01;
    D45 : 01;
    D46 : 01;
    D47 : 01;
    D48 : 01;
    D49 : 01;
    D4A : 01;
    D4B : 01;
    D4C : 01;
    D4D : 00;
    D4E : 00;
    D4F : 00;
    D50 : 00;
    D51 : 01;
    D52 : 01;
    D53 : 01;
    D54 : 01;
    D55 : 01;
    D56 : 01;
    D57 : 01;
    D58 : 01;
    D59 : 01;
    D5A : 01;
    D5B : 01;
    D5C : 01;
    D5D : 01;
    D5E : 01;
    D5F : 01;
    D60 : 01;
    D61 : 01;
    D62 : 01;
    D63 : 01;
    D64 : 01;
    D65 : 01;
    D66 : 01;
    D67 : 01;
    D68 : 01;
    D69 : 01;
    D6A : 01;
    D6B : 01;
    D6C : 01;
    D6D : 01;
    D6E : 01;
    D6F : 00;
    D70 : 00;
    D71 : 00;
    D72 : 00;
    D73 : 00;
    D74 : 00;
    D75 : 00;
    D76 : 00;
    D77 : 01;
    D78 : 01;
    D79 : 01;
    D7A : 01;
    D7B : 01;
    D7C : 01;
    D7D : 01;
    D7E : 01;
    D7F : 01;
    D80 : 01;
    D81 : 01;
    D82 : 01;
    D83 : 01;
    D84 : 01;
    D85 : 01;
    D86 : 01;
    D87 : 01;
    D88 : 01;
    D89 : 01;
    D8A : 01;
    D8B : 01;
    D8C : 01;
    D8D : 01;
    D8E : 01;
    D8F : 01;
    D90 : 01;
    D91 : 01;
    D92 : 01;
    D93 : 01;
    D94 : 00;
    D95 : 00;
    D96 : 00;
    D97 : 00;
    D98 : 01;
    D99 : 01;
    D9A : 01;
    D9B : 01;
    D9C : 01;
    D9D : 01;
    D9E : 01;
    D9F : 01;
    DA0 : 01;
    DA1 : 01;
    DA2 : 01;
    DA3 : 01;
    DA4 : 01;
    DA5 : 01;
    DA6 : 01;
    DA7 : 01;
    DA8 : 01;
    DA9 : 01;
    DAA : 01;
    DAB : 01;
    DAC : 01;
    DAD : 01;
    DAE : 01;
    DAF : 01;
    DB0 : 01;
    DB1 : 01;
    DB2 : 01;
    DB3 : 01;
    DB4 : 00;
    DB5 : 00;
    DB6 : 00;
    DB7 : 01;
    DB8 : 01;
    DB9 : 01;
    DBA : 01;
    DBB : 01;
    DBC : 01;
    DBD : 01;
    DBE : 01;
    DBF : 01;
    DC0 : 01;
    DC1 : 01;
    DC2 : 01;
    DC3 : 01;
    DC4 : 01;
    DC5 : 01;
    DC6 : 01;
    DC7 : 01;
    DC8 : 01;
    DC9 : 01;
    DCA : 01;
    DCB : 01;
    DCC : 01;
    DCD : 01;
    DCE : 01;
    DCF : 01;
    DD0 : 01;
    DD1 : 01;
    DD2 : 01;
    DD3 : 01;
    DD4 : 01;
    DD5 : 01;
    DD6 : 01;
    DD7 : 01;
    DD8 : 01;
    DD9 : 01;
    DDA : 01;
    DDB : 01;
    DDC : 01;
    DDD : 01;
    DDE : 01;
    DDF : 01;
    DE0 : 01;
    DE1 : 01;
    DE2 : 01;
    DE3 : 01;
    DE4 : 01;
    DE5 : 01;
    DE6 : 01;
    DE7 : 01;
    DE8 : 01;
    DE9 : 01;
    DEA : 00;
    DEB : 00;
    DEC : 00;
    DED : 01;
    DEE : 01;
    DEF : 01;
    DF0 : 01;
    DF1 : 01;
    DF2 : 01;
    DF3 : 01;
    DF4 : 01;
    DF5 : 01;
    DF6 : 01;
    DF7 : 01;
    DF8 : 01;
    DF9 : 01;
    DFA : 01;
    DFB : 01;
    DFC : 01;
    DFD : 01;
    DFE : 01;
    DFF : 01;
    E00 : 01;
    E01 : 01;
    E02 : 01;
    E03 : 01;
    E04 : 01;
    E05 : 01;
    E06 : 01;
    E07 : 01;
    E08 : 01;
    E09 : 01;
    E0A : 01;
    E0B : 01;
    E0C : 00;
    E0D : 00;
    E0E : 00;
    E0F : 00;
    E10 : 10;
    E11 : 10;
    E12 : 10;
    E13 : 10;
    E14 : 10;
    E15 : 10;
    E16 : 10;
    E17 : 10;
    E18 : 10;
    E19 : 10;
    E1A : 10;
    E1B : 10;
    E1C : 10;
    E1D : 10;
    E1E : 10;
    E1F : 10;
    E20 : 00;
    E21 : 00;
    E22 : 00;
    E23 : 00;
    E24 : 01;
    E25 : 01;
    E26 : 01;
    E27 : 01;
    E28 : 01;
    E29 : 01;
    E2A : 01;
    E2B : 01;
    E2C : 01;
    E2D : 01;
    E2E : 01;
    E2F : 01;
    E30 : 01;
    E31 : 01;
    E32 : 01;
    E33 : 01;
    E34 : 01;
    E35 : 01;
    E36 : 01;
    E37 : 01;
    E38 : 01;
    E39 : 01;
    E3A : 01;
    E3B : 01;
    E3C : 01;
    E3D : 01;
    E3E : 01;
    E3F : 01;
    E40 : 01;
    E41 : 00;
    E42 : 00;
    E43 : 00;
    E44 : 00;
    E45 : 01;
    E46 : 01;
    E47 : 01;
    E48 : 01;
    E49 : 01;
    E4A : 01;
    E4B : 01;
    E4C : 01;
    E4D : 01;
    E4E : 01;
    E4F : 01;
    E50 : 01;
    E51 : 01;
    E52 : 01;
    E53 : 00;
    E54 : 00;
    E55 : 00;
    E56 : 00;
    E57 : 01;
    E58 : 01;
    E59 : 01;
    E5A : 01;
    E5B : 01;
    E5C : 01;
    E5D : 01;
    E5E : 01;
    E5F : 01;
    E60 : 01;
    E61 : 01;
    E62 : 01;
    E63 : 01;
    E64 : 00;
    E65 : 00;
    E66 : 00;
    E67 : 00;
    E68 : 01;
    E69 : 01;
    E6A : 01;
    E6B : 01;
    E6C : 01;
    E6D : 01;
    E6E : 01;
    E6F : 01;
    E70 : 01;
    E71 : 01;
    E72 : 01;
    E73 : 01;
    E74 : 01;
    E75 : 01;
    E76 : 01;
    E77 : 01;
    E78 : 01;
    E79 : 01;
    E7A : 01;
    E7B : 01;
    E7C : 01;
    E7D : 01;
    E7E : 01;
    E7F : 01;
    E80 : 01;
    E81 : 01;
    E82 : 01;
    E83 : 01;
    E84 : 01;
    E85 : 01;
    E86 : 00;
    E87 : 00;
    E88 : 00;
    E89 : 00;
    E8A : 01;
    E8B : 01;
    E8C : 01;
    E8D : 01;
    E8E : 01;
    E8F : 01;
    E90 : 01;
    E91 : 01;
    E92 : 01;
    E93 : 01;
    E94 : 01;
    E95 : 01;
    E96 : 01;
    E97 : 01;
    E98 : 01;
    E99 : 01;
    E9A : 01;
    E9B : 01;
    E9C : 01;
    E9D : 01;
    E9E : 01;
    E9F : 01;
    EA0 : 01;
    EA1 : 01;
    EA2 : 01;
    EA3 : 01;
    EA4 : 01;
    EA5 : 01;
    EA6 : 01;
    EA7 : 01;
    EA8 : 00;
    EA9 : 00;
    EAA : 00;
    EAB : 00;
    EAC : 00;
    EAD : 00;
    EAE : 00;
    EAF : 00;
    EB0 : 01;
    EB1 : 01;
    EB2 : 01;
    EB3 : 01;
    EB4 : 01;
    EB5 : 01;
    EB6 : 01;
    EB7 : 01;
    EB8 : 01;
    EB9 : 01;
    EBA : 01;
    EBB : 01;
    EBC : 01;
    EBD : 01;
    EBE : 01;
    EBF : 01;
    EC0 : 01;
    EC1 : 01;
    EC2 : 01;
    EC3 : 01;
    EC4 : 01;
    EC5 : 01;
    EC6 : 01;
    EC7 : 01;
    EC8 : 01;
    EC9 : 01;
    ECA : 01;
    ECB : 01;
    ECC : 01;
    ECD : 00;
    ECE : 00;
    ECF : 00;
    ED0 : 00;
    ED1 : 01;
    ED2 : 01;
    ED3 : 01;
    ED4 : 01;
    ED5 : 01;
    ED6 : 01;
    ED7 : 01;
    ED8 : 01;
    ED9 : 01;
    EDA : 01;
    EDB : 01;
    EDC : 01;
    EDD : 01;
    EDE : 01;
    EDF : 01;
    EE0 : 01;
    EE1 : 01;
    EE2 : 01;
    EE3 : 01;
    EE4 : 01;
    EE5 : 01;
    EE6 : 01;
    EE7 : 01;
    EE8 : 01;
    EE9 : 01;
    EEA : 01;
    EEB : 01;
    EEC : 01;
    EED : 00;
    EEE : 00;
    EEF : 00;
    EF0 : 01;
    EF1 : 01;
    EF2 : 01;
    EF3 : 01;
    EF4 : 01;
    EF5 : 01;
    EF6 : 01;
    EF7 : 01;
    EF8 : 01;
    EF9 : 01;
    EFA : 01;
    EFB : 01;
    EFC : 01;
    EFD : 01;
    EFE : 01;
    EFF : 01;
    F00 : 01;
    F01 : 01;
    F02 : 01;
    F03 : 01;
    F04 : 01;
    F05 : 01;
    F06 : 01;
    F07 : 01;
    F08 : 01;
    F09 : 01;
    F0A : 01;
    F0B : 01;
    F0C : 01;
    F0D : 01;
    F0E : 01;
    F0F : 01;
    F10 : 01;
    F11 : 01;
    F12 : 01;
    F13 : 01;
    F14 : 01;
    F15 : 01;
    F16 : 01;
    F17 : 01;
    F18 : 01;
    F19 : 01;
    F1A : 01;
    F1B : 01;
    F1C : 01;
    F1D : 01;
    F1E : 01;
    F1F : 01;
    F20 : 01;
    F21 : 01;
    F22 : 01;
    F23 : 00;
    F24 : 00;
    F25 : 00;
    F26 : 01;
    F27 : 01;
    F28 : 01;
    F29 : 01;
    F2A : 01;
    F2B : 01;
    F2C : 01;
    F2D : 01;
    F2E : 01;
    F2F : 01;
    F30 : 01;
    F31 : 01;
    F32 : 01;
    F33 : 01;
    F34 : 01;
    F35 : 01;
    F36 : 01;
    F37 : 01;
    F38 : 01;
    F39 : 01;
    F3A : 01;
    F3B : 01;
    F3C : 01;
    F3D : 01;
    F3E : 01;
    F3F : 01;
    F40 : 01;
    F41 : 01;
    F42 : 01;
    F43 : 01;
    F44 : 01;
    F45 : 00;
    F46 : 00;
    F47 : 00;
    F48 : 00;
    F49 : 10;
    F4A : 10;
    F4B : 10;
    F4C : 10;
    F4D : 10;
    F4E : 10;
    F4F : 10;
    F50 : 10;
    F51 : 10;
    F52 : 10;
    F53 : 10;
    F54 : 10;
    F55 : 10;
    F56 : 10;
    F57 : 10;
    F58 : 10;
    F59 : 00;
    F5A : 00;
    F5B : 00;
    F5C : 00;
    F5D : 01;
    F5E : 01;
    F5F : 01;
    F60 : 01;
    F61 : 01;
    F62 : 01;
    F63 : 01;
    F64 : 01;
    F65 : 01;
    F66 : 01;
    F67 : 01;
    F68 : 01;
    F69 : 01;
    F6A : 01;
    F6B : 01;
    F6C : 01;
    F6D : 01;
    F6E : 01;
    F6F : 01;
    F70 : 01;
    F71 : 01;
    F72 : 01;
    F73 : 01;
    F74 : 01;
    F75 : 01;
    F76 : 01;
    F77 : 01;
    F78 : 01;
    F79 : 01;
    F7A : 00;
    F7B : 00;
    F7C : 00;
    F7D : 00;
    F7E : 01;
    F7F : 01;
    F80 : 01;
    F81 : 01;
    F82 : 01;
    F83 : 01;
    F84 : 01;
    F85 : 01;
    F86 : 01;
    F87 : 01;
    F88 : 01;
    F89 : 01;
    F8A : 01;
    F8B : 01;
    F8C : 00;
    F8D : 00;
    F8E : 00;
    F8F : 00;
    F90 : 01;
    F91 : 01;
    F92 : 01;
    F93 : 01;
    F94 : 01;
    F95 : 01;
    F96 : 01;
    F97 : 01;
    F98 : 01;
    F99 : 01;
    F9A : 01;
    F9B : 01;
    F9C : 01;
    F9D : 00;
    F9E : 00;
    F9F : 00;
    FA0 : 00;
    FA1 : 01;
    FA2 : 01;
    FA3 : 01;
    FA4 : 01;
    FA5 : 01;
    FA6 : 01;
    FA7 : 01;
    FA8 : 01;
    FA9 : 01;
    FAA : 01;
    FAB : 01;
    FAC : 01;
    FAD : 01;
    FAE : 01;
    FAF : 01;
    FB0 : 01;
    FB1 : 01;
    FB2 : 01;
    FB3 : 01;
    FB4 : 01;
    FB5 : 01;
    FB6 : 01;
    FB7 : 01;
    FB8 : 01;
    FB9 : 01;
    FBA : 01;
    FBB : 01;
    FBC : 01;
    FBD : 01;
    FBE : 01;
    FBF : 00;
    FC0 : 00;
    FC1 : 00;
    FC2 : 00;
    FC3 : 01;
    FC4 : 01;
    FC5 : 01;
    FC6 : 01;
    FC7 : 01;
    FC8 : 01;
    FC9 : 01;
    FCA : 01;
    FCB : 01;
    FCC : 01;
    FCD : 01;
    FCE : 01;
    FCF : 01;
    FD0 : 01;
    FD1 : 01;
    FD2 : 01;
    FD3 : 01;
    FD4 : 01;
    FD5 : 01;
    FD6 : 01;
    FD7 : 01;
    FD8 : 01;
    FD9 : 01;
    FDA : 01;
    FDB : 01;
    FDC : 01;
    FDD : 01;
    FDE : 01;
    FDF : 01;
    FE0 : 01;
    FE1 : 00;
    FE2 : 00;
    FE3 : 00;
    FE4 : 00;
    FE5 : 00;
    FE6 : 00;
    FE7 : 00;
    FE8 : 00;
    FE9 : 01;
    FEA : 01;
    FEB : 01;
    FEC : 01;
    FED : 01;
    FEE : 01;
    FEF : 01;
    FF0 : 01;
    FF1 : 01;
    FF2 : 01;
    FF3 : 01;
    FF4 : 01;
    FF5 : 01;
    FF6 : 01;
    FF7 : 01;
    FF8 : 01;
    FF9 : 01;
    FFA : 01;
    FFB : 01;
    FFC : 01;
    FFD : 01;
    FFE : 01;
    FFF : 01;
    1000 : 01;
    1001 : 01;
    1002 : 01;
    1003 : 01;
    1004 : 01;
    1005 : 01;
    1006 : 00;
    1007 : 00;
    1008 : 00;
    1009 : 00;
    100A : 01;
    100B : 01;
    100C : 01;
    100D : 01;
    100E : 01;
    100F : 01;
    1010 : 01;
    1011 : 01;
    1012 : 01;
    1013 : 01;
    1014 : 01;
    1015 : 01;
    1016 : 01;
    1017 : 01;
    1018 : 01;
    1019 : 01;
    101A : 01;
    101B : 01;
    101C : 01;
    101D : 01;
    101E : 01;
    101F : 01;
    1020 : 01;
    1021 : 01;
    1022 : 01;
    1023 : 01;
    1024 : 01;
    1025 : 01;
    1026 : 00;
    1027 : 00;
    1028 : 00;
    1029 : 01;
    102A : 01;
    102B : 01;
    102C : 01;
    102D : 01;
    102E : 01;
    102F : 01;
    1030 : 01;
    1031 : 01;
    1032 : 01;
    1033 : 01;
    1034 : 01;
    1035 : 01;
    1036 : 01;
    1037 : 01;
    1038 : 01;
    1039 : 01;
    103A : 01;
    103B : 01;
    103C : 01;
    103D : 01;
    103E : 01;
    103F : 01;
    1040 : 01;
    1041 : 01;
    1042 : 01;
    1043 : 01;
    1044 : 01;
    1045 : 01;
    1046 : 01;
    1047 : 01;
    1048 : 01;
    1049 : 01;
    104A : 01;
    104B : 01;
    104C : 01;
    104D : 01;
    104E : 01;
    104F : 01;
    1050 : 01;
    1051 : 01;
    1052 : 01;
    1053 : 01;
    1054 : 01;
    1055 : 01;
    1056 : 01;
    1057 : 01;
    1058 : 01;
    1059 : 01;
    105A : 01;
    105B : 01;
    105C : 00;
    105D : 00;
    105E : 00;
    105F : 01;
    1060 : 01;
    1061 : 01;
    1062 : 01;
    1063 : 01;
    1064 : 01;
    1065 : 01;
    1066 : 01;
    1067 : 01;
    1068 : 01;
    1069 : 01;
    106A : 01;
    106B : 01;
    106C : 01;
    106D : 01;
    106E : 01;
    106F : 01;
    1070 : 01;
    1071 : 01;
    1072 : 01;
    1073 : 01;
    1074 : 01;
    1075 : 01;
    1076 : 01;
    1077 : 01;
    1078 : 01;
    1079 : 01;
    107A : 01;
    107B : 01;
    107C : 01;
    107D : 01;
    107E : 00;
    107F : 00;
    1080 : 00;
    1081 : 00;
    1082 : 10;
    1083 : 10;
    1084 : 10;
    1085 : 10;
    1086 : 10;
    1087 : 10;
    1088 : 10;
    1089 : 10;
    108A : 10;
    108B : 10;
    108C : 10;
    108D : 10;
    108E : 10;
    108F : 10;
    1090 : 10;
    1091 : 10;
    1092 : 00;
    1093 : 00;
    1094 : 00;
    1095 : 00;
    1096 : 01;
    1097 : 01;
    1098 : 01;
    1099 : 01;
    109A : 01;
    109B : 01;
    109C : 01;
    109D : 01;
    109E : 01;
    109F : 01;
    10A0 : 01;
    10A1 : 01;
    10A2 : 01;
    10A3 : 01;
    10A4 : 01;
    10A5 : 01;
    10A6 : 01;
    10A7 : 01;
    10A8 : 01;
    10A9 : 01;
    10AA : 01;
    10AB : 01;
    10AC : 01;
    10AD : 01;
    10AE : 01;
    10AF : 01;
    10B0 : 01;
    10B1 : 01;
    10B2 : 01;
    10B3 : 00;
    10B4 : 00;
    10B5 : 00;
    10B6 : 00;
    10B7 : 01;
    10B8 : 01;
    10B9 : 01;
    10BA : 01;
    10BB : 01;
    10BC : 01;
    10BD : 01;
    10BE : 01;
    10BF : 01;
    10C0 : 01;
    10C1 : 01;
    10C2 : 01;
    10C3 : 01;
    10C4 : 01;
    10C5 : 00;
    10C6 : 00;
    10C7 : 00;
    10C8 : 00;
    10C9 : 01;
    10CA : 01;
    10CB : 01;
    10CC : 01;
    10CD : 01;
    10CE : 01;
    10CF : 01;
    10D0 : 01;
    10D1 : 01;
    10D2 : 01;
    10D3 : 01;
    10D4 : 01;
    10D5 : 01;
    10D6 : 00;
    10D7 : 00;
    10D8 : 00;
    10D9 : 00;
    10DA : 01;
    10DB : 01;
    10DC : 01;
    10DD : 01;
    10DE : 01;
    10DF : 01;
    10E0 : 01;
    10E1 : 01;
    10E2 : 01;
    10E3 : 01;
    10E4 : 01;
    10E5 : 01;
    10E6 : 01;
    10E7 : 01;
    10E8 : 01;
    10E9 : 01;
    10EA : 01;
    10EB : 01;
    10EC : 01;
    10ED : 01;
    10EE : 01;
    10EF : 01;
    10F0 : 01;
    10F1 : 01;
    10F2 : 01;
    10F3 : 01;
    10F4 : 01;
    10F5 : 01;
    10F6 : 01;
    10F7 : 01;
    10F8 : 00;
    10F9 : 00;
    10FA : 00;
    10FB : 00;
    10FC : 01;
    10FD : 01;
    10FE : 01;
    10FF : 01;
    1100 : 01;
    1101 : 01;
    1102 : 01;
    1103 : 01;
    1104 : 01;
    1105 : 01;
    1106 : 01;
    1107 : 01;
    1108 : 01;
    1109 : 01;
    110A : 01;
    110B : 01;
    110C : 01;
    110D : 01;
    110E : 01;
    110F : 01;
    1110 : 01;
    1111 : 01;
    1112 : 01;
    1113 : 01;
    1114 : 01;
    1115 : 01;
    1116 : 01;
    1117 : 01;
    1118 : 01;
    1119 : 01;
    111A : 00;
    111B : 00;
    111C : 00;
    111D : 00;
    111E : 00;
    111F : 00;
    1120 : 00;
    1121 : 00;
    1122 : 01;
    1123 : 01;
    1124 : 01;
    1125 : 01;
    1126 : 01;
    1127 : 01;
    1128 : 01;
    1129 : 01;
    112A : 01;
    112B : 01;
    112C : 01;
    112D : 01;
    112E : 01;
    112F : 01;
    1130 : 01;
    1131 : 01;
    1132 : 01;
    1133 : 01;
    1134 : 01;
    1135 : 01;
    1136 : 01;
    1137 : 01;
    1138 : 01;
    1139 : 01;
    113A : 01;
    113B : 01;
    113C : 01;
    113D : 01;
    113E : 01;
    113F : 00;
    1140 : 00;
    1141 : 00;
    1142 : 00;
    1143 : 01;
    1144 : 01;
    1145 : 01;
    1146 : 01;
    1147 : 01;
    1148 : 01;
    1149 : 01;
    114A : 01;
    114B : 01;
    114C : 01;
    114D : 01;
    114E : 01;
    114F : 01;
    1150 : 01;
    1151 : 01;
    1152 : 01;
    1153 : 01;
    1154 : 01;
    1155 : 01;
    1156 : 01;
    1157 : 01;
    1158 : 01;
    1159 : 01;
    115A : 01;
    115B : 01;
    115C : 01;
    115D : 01;
    115E : 01;
    115F : 00;
    1160 : 00;
    1161 : 00;
    1162 : 01;
    1163 : 01;
    1164 : 01;
    1165 : 01;
    1166 : 01;
    1167 : 01;
    1168 : 01;
    1169 : 01;
    116A : 01;
    116B : 01;
    116C : 01;
    116D : 01;
    116E : 01;
    116F : 01;
    1170 : 01;
    1171 : 01;
    1172 : 01;
    1173 : 01;
    1174 : 01;
    1175 : 01;
    1176 : 01;
    1177 : 01;
    1178 : 01;
    1179 : 01;
    117A : 01;
    117B : 01;
    117C : 01;
    117D : 01;
    117E : 01;
    117F : 01;
    1180 : 01;
    1181 : 01;
    1182 : 01;
    1183 : 01;
    1184 : 01;
    1185 : 01;
    1186 : 01;
    1187 : 01;
    1188 : 01;
    1189 : 01;
    118A : 01;
    118B : 01;
    118C : 01;
    118D : 01;
    118E : 01;
    118F : 01;
    1190 : 01;
    1191 : 01;
    1192 : 01;
    1193 : 01;
    1194 : 01;
    1195 : 00;
    1196 : 00;
    1197 : 00;
    1198 : 01;
    1199 : 01;
    119A : 01;
    119B : 01;
    119C : 01;
    119D : 01;
    119E : 01;
    119F : 01;
    11A0 : 01;
    11A1 : 01;
    11A2 : 01;
    11A3 : 01;
    11A4 : 01;
    11A5 : 01;
    11A6 : 01;
    11A7 : 01;
    11A8 : 01;
    11A9 : 01;
    11AA : 01;
    11AB : 01;
    11AC : 01;
    11AD : 01;
    11AE : 01;
    11AF : 01;
    11B0 : 01;
    11B1 : 01;
    11B2 : 01;
    11B3 : 01;
    11B4 : 01;
    11B5 : 01;
    11B6 : 01;
    11B7 : 00;
    11B8 : 00;
    11B9 : 00;
    11BA : 00;
    11BB : 10;
    11BC : 10;
    11BD : 10;
    11BE : 10;
    11BF : 10;
    11C0 : 10;
    11C1 : 10;
    11C2 : 10;
    11C3 : 10;
    11C4 : 10;
    11C5 : 10;
    11C6 : 10;
    11C7 : 10;
    11C8 : 10;
    11C9 : 10;
    11CA : 10;
    11CB : 00;
    11CC : 00;
    11CD : 00;
    11CE : 00;
    11CF : 01;
    11D0 : 01;
    11D1 : 01;
    11D2 : 01;
    11D3 : 01;
    11D4 : 01;
    11D5 : 01;
    11D6 : 01;
    11D7 : 01;
    11D8 : 01;
    11D9 : 01;
    11DA : 01;
    11DB : 01;
    11DC : 01;
    11DD : 01;
    11DE : 01;
    11DF : 01;
    11E0 : 01;
    11E1 : 01;
    11E2 : 01;
    11E3 : 01;
    11E4 : 01;
    11E5 : 01;
    11E6 : 01;
    11E7 : 01;
    11E8 : 01;
    11E9 : 01;
    11EA : 01;
    11EB : 01;
    11EC : 00;
    11ED : 00;
    11EE : 00;
    11EF : 00;
    11F0 : 01;
    11F1 : 01;
    11F2 : 01;
    11F3 : 01;
    11F4 : 01;
    11F5 : 01;
    11F6 : 01;
    11F7 : 01;
    11F8 : 01;
    11F9 : 01;
    11FA : 01;
    11FB : 01;
    11FC : 01;
    11FD : 01;
    11FE : 00;
    11FF : 00;
    1200 : 00;
    1201 : 00;
    1202 : 01;
    1203 : 01;
    1204 : 01;
    1205 : 01;
    1206 : 01;
    1207 : 01;
    1208 : 01;
    1209 : 01;
    120A : 01;
    120B : 01;
    120C : 01;
    120D : 01;
    120E : 01;
    120F : 00;
    1210 : 00;
    1211 : 00;
    1212 : 00;
    1213 : 01;
    1214 : 01;
    1215 : 01;
    1216 : 01;
    1217 : 01;
    1218 : 01;
    1219 : 01;
    121A : 01;
    121B : 01;
    121C : 01;
    121D : 01;
    121E : 01;
    121F : 01;
    1220 : 01;
    1221 : 01;
    1222 : 01;
    1223 : 01;
    1224 : 01;
    1225 : 01;
    1226 : 01;
    1227 : 01;
    1228 : 01;
    1229 : 01;
    122A : 01;
    122B : 01;
    122C : 01;
    122D : 01;
    122E : 01;
    122F : 01;
    1230 : 01;
    1231 : 00;
    1232 : 00;
    1233 : 00;
    1234 : 00;
    1235 : 01;
    1236 : 01;
    1237 : 01;
    1238 : 01;
    1239 : 01;
    123A : 01;
    123B : 01;
    123C : 01;
    123D : 01;
    123E : 01;
    123F : 01;
    1240 : 01;
    1241 : 01;
    1242 : 01;
    1243 : 01;
    1244 : 01;
    1245 : 01;
    1246 : 01;
    1247 : 01;
    1248 : 01;
    1249 : 01;
    124A : 01;
    124B : 01;
    124C : 01;
    124D : 01;
    124E : 01;
    124F : 01;
    1250 : 01;
    1251 : 01;
    1252 : 01;
    1253 : 00;
    1254 : 00;
    1255 : 00;
    1256 : 00;
    1257 : 00;
    1258 : 00;
    1259 : 00;
    125A : 00;
    125B : 01;
    125C : 01;
    125D : 01;
    125E : 01;
    125F : 01;
    1260 : 01;
    1261 : 01;
    1262 : 01;
    1263 : 01;
    1264 : 01;
    1265 : 01;
    1266 : 01;
    1267 : 01;
    1268 : 01;
    1269 : 01;
    126A : 01;
    126B : 01;
    126C : 01;
    126D : 01;
    126E : 01;
    126F : 01;
    1270 : 01;
    1271 : 01;
    1272 : 01;
    1273 : 01;
    1274 : 01;
    1275 : 01;
    1276 : 01;
    1277 : 01;
    1278 : 00;
    1279 : 00;
    127A : 00;
    127B : 00;
    127C : 01;
    127D : 01;
    127E : 01;
    127F : 01;
    1280 : 01;
    1281 : 01;
    1282 : 01;
    1283 : 01;
    1284 : 01;
    1285 : 01;
    1286 : 01;
    1287 : 01;
    1288 : 01;
    1289 : 01;
    128A : 01;
    128B : 01;
    128C : 01;
    128D : 01;
    128E : 01;
    128F : 01;
    1290 : 01;
    1291 : 01;
    1292 : 01;
    1293 : 01;
    1294 : 01;
    1295 : 01;
    1296 : 01;
    1297 : 01;
    1298 : 00;
    1299 : 00;
    129A : 00;
    129B : 01;
    129C : 01;
    129D : 01;
    129E : 01;
    129F : 01;
    12A0 : 01;
    12A1 : 01;
    12A2 : 01;
    12A3 : 01;
    12A4 : 01;
    12A5 : 01;
    12A6 : 01;
    12A7 : 01;
    12A8 : 01;
    12A9 : 01;
    12AA : 01;
    12AB : 01;
    12AC : 01;
    12AD : 01;
    12AE : 01;
    12AF : 01;
    12B0 : 01;
    12B1 : 01;
    12B2 : 01;
    12B3 : 01;
    12B4 : 01;
    12B5 : 01;
    12B6 : 01;
    12B7 : 01;
    12B8 : 01;
    12B9 : 01;
    12BA : 01;
    12BB : 01;
    12BC : 01;
    12BD : 01;
    12BE : 01;
    12BF : 01;
    12C0 : 01;
    12C1 : 01;
    12C2 : 01;
    12C3 : 01;
    12C4 : 01;
    12C5 : 01;
    12C6 : 01;
    12C7 : 01;
    12C8 : 01;
    12C9 : 01;
    12CA : 01;
    12CB : 01;
    12CC : 01;
    12CD : 01;
    12CE : 00;
    12CF : 00;
    12D0 : 00;
    12D1 : 01;
    12D2 : 01;
    12D3 : 01;
    12D4 : 01;
    12D5 : 01;
    12D6 : 01;
    12D7 : 01;
    12D8 : 01;
    12D9 : 01;
    12DA : 01;
    12DB : 01;
    12DC : 01;
    12DD : 01;
    12DE : 01;
    12DF : 01;
    12E0 : 01;
    12E1 : 01;
    12E2 : 01;
    12E3 : 01;
    12E4 : 01;
    12E5 : 01;
    12E6 : 01;
    12E7 : 01;
    12E8 : 01;
    12E9 : 01;
    12EA : 01;
    12EB : 01;
    12EC : 01;
    12ED : 01;
    12EE : 01;
    12EF : 01;
    12F0 : 00;
    12F1 : 00;
    12F2 : 00;
    12F3 : 00;
    12F4 : 10;
    12F5 : 10;
    12F6 : 10;
    12F7 : 10;
    12F8 : 10;
    12F9 : 10;
    12FA : 10;
    12FB : 10;
    12FC : 10;
    12FD : 10;
    12FE : 10;
    12FF : 10;
    1300 : 10;
    1301 : 10;
    1302 : 10;
    1303 : 10;
    1304 : 00;
    1305 : 00;
    1306 : 00;
    1307 : 00;
    1308 : 01;
    1309 : 01;
    130A : 01;
    130B : 01;
    130C : 01;
    130D : 01;
    130E : 01;
    130F : 01;
    1310 : 01;
    1311 : 01;
    1312 : 01;
    1313 : 01;
    1314 : 01;
    1315 : 01;
    1316 : 01;
    1317 : 01;
    1318 : 01;
    1319 : 01;
    131A : 01;
    131B : 01;
    131C : 01;
    131D : 01;
    131E : 01;
    131F : 01;
    1320 : 01;
    1321 : 01;
    1322 : 01;
    1323 : 01;
    1324 : 01;
    1325 : 00;
    1326 : 00;
    1327 : 00;
    1328 : 00;
    1329 : 01;
    132A : 01;
    132B : 01;
    132C : 01;
    132D : 01;
    132E : 01;
    132F : 01;
    1330 : 01;
    1331 : 01;
    1332 : 01;
    1333 : 01;
    1334 : 01;
    1335 : 01;
    1336 : 01;
    1337 : 00;
    1338 : 00;
    1339 : 00;
    133A : 00;
    133B : 01;
    133C : 01;
    133D : 01;
    133E : 01;
    133F : 01;
    1340 : 01;
    1341 : 01;
    1342 : 01;
    1343 : 01;
    1344 : 01;
    1345 : 01;
    1346 : 01;
    1347 : 01;
    1348 : 00;
    1349 : 00;
    134A : 00;
    134B : 00;
    134C : 01;
    134D : 01;
    134E : 01;
    134F : 01;
    1350 : 01;
    1351 : 01;
    1352 : 01;
    1353 : 01;
    1354 : 01;
    1355 : 01;
    1356 : 01;
    1357 : 01;
    1358 : 01;
    1359 : 01;
    135A : 01;
    135B : 01;
    135C : 01;
    135D : 01;
    135E : 01;
    135F : 01;
    1360 : 01;
    1361 : 01;
    1362 : 01;
    1363 : 01;
    1364 : 01;
    1365 : 01;
    1366 : 01;
    1367 : 01;
    1368 : 01;
    1369 : 01;
    136A : 00;
    136B : 00;
    136C : 00;
    136D : 00;
    136E : 01;
    136F : 01;
    1370 : 01;
    1371 : 01;
    1372 : 01;
    1373 : 01;
    1374 : 01;
    1375 : 01;
    1376 : 01;
    1377 : 01;
    1378 : 01;
    1379 : 01;
    137A : 01;
    137B : 01;
    137C : 01;
    137D : 01;
    137E : 01;
    137F : 01;
    1380 : 01;
    1381 : 01;
    1382 : 01;
    1383 : 01;
    1384 : 01;
    1385 : 01;
    1386 : 01;
    1387 : 01;
    1388 : 01;
    1389 : 01;
    138A : 01;
    138B : 01;
    138C : 00;
    138D : 00;
    138E : 00;
    138F : 00;
    1390 : 00;
    1391 : 00;
    1392 : 00;
    1393 : 00;
    1394 : 01;
    1395 : 01;
    1396 : 01;
    1397 : 01;
    1398 : 01;
    1399 : 01;
    139A : 01;
    139B : 01;
    139C : 01;
    139D : 01;
    139E : 01;
    139F : 01;
    13A0 : 00;
    13A1 : 00;
    13A2 : 00;
    13A3 : 00;
    13A4 : 00;
    13A5 : 00;
    13A6 : 00;
    13A7 : 00;
    13A8 : 00;
    13A9 : 00;
    13AA : 00;
    13AB : 00;
    13AC : 00;
    13AD : 00;
    13AE : 00;
    13AF : 00;
    13B0 : 00;
    13B1 : 00;
    13B2 : 00;
    13B3 : 00;
    13B4 : 00;
    13B5 : 00;
    13B6 : 00;
    13B7 : 00;
    13B8 : 00;
    13B9 : 00;
    13BA : 00;
    13BB : 00;
    13BC : 00;
    13BD : 00;
    13BE : 00;
    13BF : 00;
    13C0 : 00;
    13C1 : 00;
    13C2 : 00;
    13C3 : 00;
    13C4 : 01;
    13C5 : 01;
    13C6 : 01;
    13C7 : 01;
    13C8 : 01;
    13C9 : 01;
    13CA : 01;
    13CB : 01;
    13CC : 01;
    13CD : 01;
    13CE : 01;
    13CF : 01;
    13D0 : 01;
    13D1 : 00;
    13D2 : 00;
    13D3 : 00;
    13D4 : 01;
    13D5 : 01;
    13D6 : 01;
    13D7 : 01;
    13D8 : 01;
    13D9 : 01;
    13DA : 01;
    13DB : 01;
    13DC : 01;
    13DD : 01;
    13DE : 01;
    13DF : 01;
    13E0 : 01;
    13E1 : 01;
    13E2 : 01;
    13E3 : 01;
    13E4 : 01;
    13E5 : 01;
    13E6 : 01;
    13E7 : 01;
    13E8 : 01;
    13E9 : 01;
    13EA : 01;
    13EB : 01;
    13EC : 01;
    13ED : 01;
    13EE : 01;
    13EF : 01;
    13F0 : 01;
    13F1 : 01;
    13F2 : 01;
    13F3 : 01;
    13F4 : 01;
    13F5 : 01;
    13F6 : 01;
    13F7 : 01;
    13F8 : 01;
    13F9 : 01;
    13FA : 01;
    13FB : 01;
    13FC : 01;
    13FD : 01;
    13FE : 01;
    13FF : 01;
    1400 : 01;
    1401 : 01;
    1402 : 01;
    1403 : 01;
    1404 : 01;
    1405 : 01;
    1406 : 01;
    1407 : 00;
    1408 : 00;
    1409 : 00;
    140A : 01;
    140B : 01;
    140C : 01;
    140D : 01;
    140E : 01;
    140F : 01;
    1410 : 01;
    1411 : 01;
    1412 : 01;
    1413 : 01;
    1414 : 01;
    1415 : 01;
    1416 : 01;
    1417 : 01;
    1418 : 01;
    1419 : 01;
    141A : 01;
    141B : 01;
    141C : 01;
    141D : 01;
    141E : 01;
    141F : 01;
    1420 : 01;
    1421 : 01;
    1422 : 01;
    1423 : 01;
    1424 : 01;
    1425 : 01;
    1426 : 01;
    1427 : 01;
    1428 : 01;
    1429 : 00;
    142A : 00;
    142B : 00;
    142C : 00;
    142D : 10;
    142E : 10;
    142F : 10;
    1430 : 10;
    1431 : 10;
    1432 : 10;
    1433 : 10;
    1434 : 10;
    1435 : 10;
    1436 : 10;
    1437 : 10;
    1438 : 10;
    1439 : 10;
    143A : 10;
    143B : 10;
    143C : 10;
    143D : 00;
    143E : 00;
    143F : 00;
    1440 : 00;
    1441 : 01;
    1442 : 01;
    1443 : 01;
    1444 : 01;
    1445 : 01;
    1446 : 01;
    1447 : 01;
    1448 : 01;
    1449 : 01;
    144A : 01;
    144B : 01;
    144C : 01;
    144D : 01;
    144E : 00;
    144F : 00;
    1450 : 00;
    1451 : 00;
    1452 : 01;
    1453 : 01;
    1454 : 01;
    1455 : 01;
    1456 : 01;
    1457 : 01;
    1458 : 01;
    1459 : 01;
    145A : 01;
    145B : 01;
    145C : 01;
    145D : 01;
    145E : 00;
    145F : 00;
    1460 : 00;
    1461 : 00;
    1462 : 01;
    1463 : 01;
    1464 : 01;
    1465 : 01;
    1466 : 01;
    1467 : 01;
    1468 : 01;
    1469 : 01;
    146A : 01;
    146B : 01;
    146C : 01;
    146D : 01;
    146E : 01;
    146F : 01;
    1470 : 00;
    1471 : 00;
    1472 : 00;
    1473 : 00;
    1474 : 01;
    1475 : 01;
    1476 : 01;
    1477 : 01;
    1478 : 01;
    1479 : 01;
    147A : 01;
    147B : 01;
    147C : 01;
    147D : 01;
    147E : 01;
    147F : 01;
    1480 : 01;
    1481 : 00;
    1482 : 00;
    1483 : 00;
    1484 : 00;
    1485 : 01;
    1486 : 01;
    1487 : 01;
    1488 : 01;
    1489 : 01;
    148A : 01;
    148B : 01;
    148C : 01;
    148D : 01;
    148E : 01;
    148F : 01;
    1490 : 01;
    1491 : 01;
    1492 : 01;
    1493 : 01;
    1494 : 01;
    1495 : 01;
    1496 : 01;
    1497 : 01;
    1498 : 01;
    1499 : 01;
    149A : 01;
    149B : 01;
    149C : 01;
    149D : 01;
    149E : 01;
    149F : 01;
    14A0 : 01;
    14A1 : 01;
    14A2 : 01;
    14A3 : 00;
    14A4 : 00;
    14A5 : 00;
    14A6 : 00;
    14A7 : 01;
    14A8 : 01;
    14A9 : 01;
    14AA : 01;
    14AB : 01;
    14AC : 01;
    14AD : 01;
    14AE : 01;
    14AF : 01;
    14B0 : 01;
    14B1 : 01;
    14B2 : 01;
    14B3 : 01;
    14B4 : 01;
    14B5 : 01;
    14B6 : 01;
    14B7 : 01;
    14B8 : 01;
    14B9 : 01;
    14BA : 01;
    14BB : 01;
    14BC : 01;
    14BD : 01;
    14BE : 01;
    14BF : 01;
    14C0 : 01;
    14C1 : 01;
    14C2 : 01;
    14C3 : 01;
    14C4 : 01;
    14C5 : 00;
    14C6 : 00;
    14C7 : 00;
    14C8 : 00;
    14C9 : 00;
    14CA : 00;
    14CB : 00;
    14CC : 00;
    14CD : 01;
    14CE : 01;
    14CF : 01;
    14D0 : 01;
    14D1 : 01;
    14D2 : 01;
    14D3 : 01;
    14D4 : 01;
    14D5 : 01;
    14D6 : 01;
    14D7 : 01;
    14D8 : 01;
    14D9 : 00;
    14DA : 00;
    14DB : 00;
    14DC : 00;
    14DD : 00;
    14DE : 00;
    14DF : 00;
    14E0 : 00;
    14E1 : 00;
    14E2 : 00;
    14E3 : 00;
    14E4 : 00;
    14E5 : 00;
    14E6 : 00;
    14E7 : 00;
    14E8 : 00;
    14E9 : 00;
    14EA : 00;
    14EB : 00;
    14EC : 00;
    14ED : 00;
    14EE : 00;
    14EF : 00;
    14F0 : 00;
    14F1 : 00;
    14F2 : 00;
    14F3 : 00;
    14F4 : 00;
    14F5 : 00;
    14F6 : 00;
    14F7 : 00;
    14F8 : 00;
    14F9 : 00;
    14FA : 00;
    14FB : 00;
    14FC : 00;
    14FD : 01;
    14FE : 01;
    14FF : 01;
    1500 : 01;
    1501 : 01;
    1502 : 01;
    1503 : 01;
    1504 : 01;
    1505 : 01;
    1506 : 01;
    1507 : 01;
    1508 : 01;
    1509 : 01;
    150A : 00;
    150B : 00;
    150C : 00;
    150D : 01;
    150E : 01;
    150F : 01;
    1510 : 01;
    1511 : 01;
    1512 : 01;
    1513 : 01;
    1514 : 01;
    1515 : 01;
    1516 : 01;
    1517 : 01;
    1518 : 01;
    1519 : 01;
    151A : 01;
    151B : 01;
    151C : 01;
    151D : 01;
    151E : 01;
    151F : 01;
    1520 : 01;
    1521 : 01;
    1522 : 01;
    1523 : 01;
    1524 : 01;
    1525 : 01;
    1526 : 01;
    1527 : 01;
    1528 : 01;
    1529 : 01;
    152A : 01;
    152B : 01;
    152C : 01;
    152D : 01;
    152E : 01;
    152F : 01;
    1530 : 01;
    1531 : 01;
    1532 : 01;
    1533 : 01;
    1534 : 01;
    1535 : 01;
    1536 : 01;
    1537 : 01;
    1538 : 01;
    1539 : 01;
    153A : 01;
    153B : 01;
    153C : 01;
    153D : 01;
    153E : 01;
    153F : 01;
    1540 : 00;
    1541 : 00;
    1542 : 00;
    1543 : 01;
    1544 : 01;
    1545 : 01;
    1546 : 01;
    1547 : 01;
    1548 : 01;
    1549 : 01;
    154A : 01;
    154B : 01;
    154C : 01;
    154D : 01;
    154E : 01;
    154F : 01;
    1550 : 01;
    1551 : 00;
    1552 : 00;
    1553 : 00;
    1554 : 00;
    1555 : 01;
    1556 : 01;
    1557 : 01;
    1558 : 01;
    1559 : 01;
    155A : 01;
    155B : 01;
    155C : 01;
    155D : 01;
    155E : 01;
    155F : 01;
    1560 : 01;
    1561 : 01;
    1562 : 00;
    1563 : 00;
    1564 : 00;
    1565 : 00;
    1566 : 10;
    1567 : 10;
    1568 : 10;
    1569 : 10;
    156A : 10;
    156B : 10;
    156C : 10;
    156D : 10;
    156E : 10;
    156F : 10;
    1570 : 10;
    1571 : 10;
    1572 : 10;
    1573 : 10;
    1574 : 10;
    1575 : 10;
    1576 : 00;
    1577 : 00;
    1578 : 00;
    1579 : 00;
    157A : 01;
    157B : 01;
    157C : 01;
    157D : 01;
    157E : 01;
    157F : 01;
    1580 : 01;
    1581 : 01;
    1582 : 01;
    1583 : 01;
    1584 : 01;
    1585 : 01;
    1586 : 01;
    1587 : 00;
    1588 : 00;
    1589 : 00;
    158A : 00;
    158B : 01;
    158C : 01;
    158D : 01;
    158E : 01;
    158F : 01;
    1590 : 01;
    1591 : 01;
    1592 : 01;
    1593 : 01;
    1594 : 01;
    1595 : 01;
    1596 : 01;
    1597 : 00;
    1598 : 00;
    1599 : 00;
    159A : 00;
    159B : 01;
    159C : 01;
    159D : 01;
    159E : 01;
    159F : 01;
    15A0 : 01;
    15A1 : 01;
    15A2 : 01;
    15A3 : 01;
    15A4 : 01;
    15A5 : 01;
    15A6 : 01;
    15A7 : 01;
    15A8 : 01;
    15A9 : 00;
    15AA : 00;
    15AB : 00;
    15AC : 00;
    15AD : 01;
    15AE : 01;
    15AF : 01;
    15B0 : 01;
    15B1 : 01;
    15B2 : 01;
    15B3 : 01;
    15B4 : 01;
    15B5 : 01;
    15B6 : 01;
    15B7 : 01;
    15B8 : 01;
    15B9 : 01;
    15BA : 00;
    15BB : 00;
    15BC : 00;
    15BD : 00;
    15BE : 01;
    15BF : 01;
    15C0 : 01;
    15C1 : 01;
    15C2 : 01;
    15C3 : 01;
    15C4 : 01;
    15C5 : 01;
    15C6 : 01;
    15C7 : 01;
    15C8 : 01;
    15C9 : 01;
    15CA : 01;
    15CB : 01;
    15CC : 00;
    15CD : 00;
    15CE : 00;
    15CF : 00;
    15D0 : 01;
    15D1 : 01;
    15D2 : 01;
    15D3 : 01;
    15D4 : 01;
    15D5 : 01;
    15D6 : 01;
    15D7 : 01;
    15D8 : 01;
    15D9 : 01;
    15DA : 01;
    15DB : 01;
    15DC : 00;
    15DD : 00;
    15DE : 00;
    15DF : 00;
    15E0 : 01;
    15E1 : 01;
    15E2 : 01;
    15E3 : 01;
    15E4 : 01;
    15E5 : 01;
    15E6 : 01;
[...]
    41B6 : 01;
    41B7 : 01;
    41B8 : 01;
    41B9 : 01;
    41BA : 01;
    41BB : 00;
    41BC : 00;
    41BD : 00;
    41BE : 00;
    41BF : 00;
    41C0 : 00;
    41C1 : 00;
    41C2 : 01;
    41C3 : 01;
    41C4 : 01;
    41C5 : 01;
    41C6 : 01;
    41C7 : 01;
    41C8 : 01;
    41C9 : 01;
    41CA : 01;
    41CB : 01;
    41CC : 01;
    41CD : 01;
    41CE : 01;
    41CF : 01;
    41D0 : 01;
    41D1 : 01;
    41D2 : 01;
    41D3 : 01;
    41D4 : 01;
    41D5 : 01;
    41D6 : 01;
    41D7 : 01;
    41D8 : 01;
    41D9 : 01;
    41DA : 01;
    41DB : 01;
    41DC : 01;
    41DD : 01;
    41DE : 01;
    41DF : 01;
    41E0 : 00;
    41E1 : 00;
    41E2 : 00;
    41E3 : 00;
    41E4 : 01;
    41E5 : 01;
    41E6 : 01;
    41E7 : 01;
    41E8 : 01;
    41E9 : 01;
    41EA : 01;
    41EB : 01;
    41EC : 01;
    41ED : 01;
    41EE : 01;
    41EF : 01;
    41F0 : 00;
    41F1 : 00;
    41F2 : 00;
    41F3 : 00;
    41F4 : 10;
    41F5 : 10;
    41F6 : 10;
    41F7 : 10;
    41F8 : 10;
    41F9 : 10;
    41FA : 10;
    41FB : 10;
    41FC : 10;
    41FD : 10;
    41FE : 10;
    41FF : 10;
    4200 : 10;
    4201 : 10;
    4202 : 10;
    4203 : 10;
    4204 : 10;
    4205 : 10;
    4206 : 00;
    4207 : 00;
    4208 : 00;
    4209 : 00;
    420A : 00;
    420B : 00;
    420C : 00;
    420D : 00;
    420E : 00;
    420F : 00;
    4210 : 00;
    4211 : 00;
    4212 : 00;
    4213 : 00;
    4214 : 00;
    4215 : 00;
    4216 : 00;
    4217 : 00;
    4218 : 00;
    4219 : 00;
    421A : 00;
    421B : 00;
    421C : 00;
    421D : 00;
    421E : 00;
    421F : 00;
    4220 : 00;
    4221 : 00;
    4222 : 00;
    4223 : 00;
    4224 : 00;
    4225 : 00;
    4226 : 00;
    4227 : 00;
    4228 : 00;
    4229 : 00;
    422A : 00;
    422B : 00;
    422C : 00;
    422D : 00;
    422E : 00;
    422F : 00;
    4230 : 00;
    4231 : 00;
    4232 : 00;
    4233 : 00;
    4234 : 00;
    4235 : 00;
    4236 : 00;
    4237 : 00;
    4238 : 00;
    4239 : 00;
    423A : 00;
    423B : 00;
    423C : 00;
    423D : 00;
    423E : 00;
    423F : 00;
    4240 : 00;
    4241 : 00;
    4242 : 00;
    4243 : 00;
    4244 : 00;
    4245 : 00;
    4246 : 00;
    4247 : 00;
    4248 : 00;
    4249 : 00;
    424A : 00;
    424B : 00;
    424C : 00;
    424D : 00;
    424E : 00;
    424F : 00;
    4250 : 00;
    4251 : 00;
    4252 : 00;
    4253 : 00;
    4254 : 00;
    4255 : 00;
    4256 : 00;
    4257 : 00;
    4258 : 00;
    4259 : 00;
    425A : 00;
    425B : 00;
    425C : 00;
    425D : 00;
    425E : 00;
    425F : 00;
    4260 : 00;
    4261 : 00;
    4262 : 00;
    4263 : 00;
    4264 : 00;
    4265 : 00;
    4266 : 00;
    4267 : 00;
    4268 : 00;
    4269 : 00;
    426A : 00;
    426B : 00;
    426C : 00;
    426D : 00;
    426E : 00;
    426F : 00;
    4270 : 00;
    4271 : 00;
    4272 : 00;
    4273 : 00;
    4274 : 00;
    4275 : 00;
    4276 : 00;
    4277 : 00;
    4278 : 00;
    4279 : 00;
    427A : 00;
    427B : 00;
    427C : 00;
    427D : 00;
    427E : 00;
    427F : 00;
    4280 : 00;
    4281 : 00;
    4282 : 00;
    4283 : 00;
    4284 : 00;
    4285 : 00;
    4286 : 00;
    4287 : 00;
    4288 : 00;
    4289 : 00;
    428A : 00;
    428B : 00;
    428C : 00;
    428D : 00;
    428E : 00;
    428F : 00;
    4290 : 00;
    4291 : 00;
    4292 : 00;
    4293 : 00;
    4294 : 00;
    4295 : 00;
    4296 : 00;
    4297 : 00;
    4298 : 00;
    4299 : 00;
    429A : 00;
    429B : 00;
    429C : 00;
    429D : 00;
    429E : 00;
    429F : 00;
    42A0 : 00;
    42A1 : 00;
    42A2 : 00;
    42A3 : 10;
    42A4 : 10;
    42A5 : 10;
    42A6 : 10;
    42A7 : 10;
    42A8 : 10;
    42A9 : 10;
    42AA : 10;
    42AB : 10;
    42AC : 10;
    42AD : 10;
    42AE : 10;
    42AF : 10;
    42B0 : 10;
    42B1 : 10;
    42B2 : 10;
    42B3 : 00;
    42B4 : 00;
    42B5 : 00;
    42B6 : 00;
    42B7 : 00;
    42B8 : 00;
    42B9 : 00;
    42BA : 00;
    42BB : 00;
    42BC : 00;
    42BD : 00;
    42BE : 00;
    42BF : 00;
    42C0 : 00;
    42C1 : 00;
    42C2 : 00;
    42C3 : 00;
    42C4 : 00;
    42C5 : 00;
    42C6 : 00;
    42C7 : 00;
    42C8 : 00;
    42C9 : 00;
    42CA : 00;
    42CB : 00;
    42CC : 00;
    42CD : 00;
    42CE : 00;
    42CF : 00;
    42D0 : 00;
    42D1 : 00;
    42D2 : 00;
    42D3 : 00;
    42D4 : 00;
    42D5 : 00;
    42D6 : 00;
    42D7 : 00;
    42D8 : 00;
    42D9 : 00;
    42DA : 00;
    42DB : 00;
    42DC : 00;
    42DD : 00;
    42DE : 00;
    42DF : 00;
    42E0 : 00;
    42E1 : 00;
    42E2 : 00;
    42E3 : 00;
    42E4 : 00;
    42E5 : 00;
    42E6 : 00;
    42E7 : 00;
    42E8 : 00;
    42E9 : 00;
    42EA : 00;
    42EB : 00;
    42EC : 00;
    42ED : 00;
    42EE : 00;
    42EF : 00;
    42F0 : 00;
    42F1 : 00;
    42F2 : 00;
    42F3 : 00;
    42F4 : 00;
    42F5 : 00;
    42F6 : 00;
    42F7 : 00;
    42F8 : 00;
    42F9 : 00;
    42FA : 00;
    42FB : 00;
    42FC : 00;
    42FD : 00;
    42FE : 00;
    42FF : 00;
    4300 : 00;
    4301 : 00;
    4302 : 00;
    4303 : 00;
    4304 : 00;
    4305 : 00;
    4306 : 00;
    4307 : 00;
    4308 : 00;
    4309 : 00;
    430A : 00;
    430B : 00;
    430C : 00;
    430D : 00;
    430E : 00;
    430F : 00;
    4310 : 00;
    4311 : 00;
    4312 : 00;
    4313 : 00;
    4314 : 00;
    4315 : 00;
    4316 : 00;
    4317 : 00;
    4318 : 00;
    4319 : 00;
    431A : 00;
    431B : 00;
    431C : 00;
    431D : 00;
    431E : 00;
    431F : 00;
    4320 : 00;
    4321 : 00;
    4322 : 00;
    4323 : 00;
    4324 : 00;
    4325 : 00;
    4326 : 00;
    4327 : 00;
    4328 : 00;
    4329 : 00;
    432A : 00;
    432B : 00;
    432C : 00;
    432D : 10;
    432E : 10;
    432F : 10;
    4330 : 10;
    4331 : 10;
    4332 : 10;
    4333 : 10;
    4334 : 10;
    4335 : 10;
    4336 : 10;
    4337 : 10;
    4338 : 10;
    4339 : 10;
    433A : 10;
    433B : 10;
    433C : 10;
    433D : 10;
    433E : 10;
    433F : 00;
    4340 : 00;
    4341 : 00;
    4342 : 00;
    4343 : 00;
    4344 : 00;
    4345 : 00;
    4346 : 00;
    4347 : 00;
    4348 : 00;
    4349 : 00;
    434A : 00;
    434B : 00;
    434C : 00;
    434D : 00;
    434E : 00;
    434F : 00;
    4350 : 00;
    4351 : 00;
    4352 : 00;
    4353 : 00;
    4354 : 00;
    4355 : 00;
    4356 : 00;
    4357 : 00;
    4358 : 00;
    4359 : 00;
    435A : 00;
    435B : 00;
    435C : 00;
    435D : 00;
    435E : 00;
    435F : 00;
    4360 : 00;
    4361 : 00;
    4362 : 00;
    4363 : 00;
    4364 : 00;
    4365 : 00;
    4366 : 00;
    4367 : 00;
    4368 : 00;
    4369 : 00;
    436A : 00;
    436B : 00;
    436C : 00;
    436D : 00;
    436E : 00;
    436F : 00;
    4370 : 00;
    4371 : 00;
    4372 : 00;
    4373 : 00;
    4374 : 00;
    4375 : 00;
    4376 : 00;
    4377 : 00;
    4378 : 00;
    4379 : 00;
    437A : 00;
    437B : 00;
    437C : 00;
    437D : 00;
    437E : 00;
    437F : 00;
    4380 : 00;
    4381 : 00;
    4382 : 00;
    4383 : 00;
    4384 : 00;
    4385 : 00;
    4386 : 00;
    4387 : 00;
    4388 : 00;
    4389 : 00;
    438A : 00;
    438B : 00;
    438C : 00;
    438D : 00;
    438E : 00;
    438F : 00;
    4390 : 00;
    4391 : 00;
    4392 : 00;
    4393 : 00;
    4394 : 00;
    4395 : 00;
    4396 : 00;
    4397 : 00;
    4398 : 00;
    4399 : 00;
    439A : 00;
    439B : 00;
    439C : 00;
    439D : 00;
    439E : 00;
    439F : 00;
    43A0 : 00;
    43A1 : 00;
    43A2 : 00;
    43A3 : 00;
    43A4 : 00;
    43A5 : 00;
    43A6 : 00;
    43A7 : 00;
    43A8 : 00;
    43A9 : 00;
    43AA : 00;
    43AB : 00;
    43AC : 00;
    43AD : 00;
    43AE : 00;
    43AF : 00;
    43B0 : 00;
    43B1 : 00;
    43B2 : 00;
    43B3 : 00;
    43B4 : 00;
    43B5 : 00;
    43B6 : 00;
    43B7 : 00;
    43B8 : 00;
    43B9 : 00;
    43BA : 00;
    43BB : 00;
    43BC : 00;
    43BD : 00;
    43BE : 00;
    43BF : 00;
    43C0 : 00;
    43C1 : 00;
    43C2 : 00;
    43C3 : 00;
    43C4 : 00;
    43C5 : 00;
    43C6 : 00;
    43C7 : 00;
    43C8 : 00;
    43C9 : 00;
    43CA : 00;
    43CB : 00;
    43CC : 00;
    43CD : 00;
    43CE : 00;
    43CF : 00;
    43D0 : 00;
    43D1 : 00;
    43D2 : 00;
    43D3 : 00;
    43D4 : 00;
    43D5 : 00;
    43D6 : 00;
    43D7 : 00;
    43D8 : 00;
    43D9 : 00;
    43DA : 00;
    43DB : 00;
    43DC : 10;
    43DD : 10;
    43DE : 10;
    43DF : 10;
    43E0 : 10;
    43E1 : 10;
    43E2 : 10;
    43E3 : 10;
    43E4 : 10;
    43E5 : 10;
    43E6 : 10;
    43E7 : 10;
    43E8 : 10;
    43E9 : 10;
    43EA : 10;
    43EB : 10;
    43EC : 00;
    43ED : 00;
    43EE : 00;
    43EF : 00;
    43F0 : 00;
    43F1 : 00;
    43F2 : 00;
    43F3 : 00;
    43F4 : 00;
    43F5 : 00;
    43F6 : 00;
    43F7 : 00;
    43F8 : 00;
    43F9 : 00;
    43FA : 00;
    43FB : 00;
    43FC : 00;
    43FD : 00;
    43FE : 00;
    43FF : 00;
    4400 : 00;
    4401 : 00;
    4402 : 00;
    4403 : 00;
    4404 : 00;
    4405 : 00;
    4406 : 00;
    4407 : 00;
    4408 : 00;
    4409 : 00;
    440A : 00;
    440B : 00;
    440C : 00;
    440D : 00;
    440E : 00;
    440F : 00;
    4410 : 00;
    4411 : 10;
    4412 : 10;
    4413 : 10;
    4414 : 10;
    4415 : 10;
    4416 : 00;
    4417 : 00;
    4418 : 00;
    4419 : 00;
    441A : 00;
    441B : 00;
    441C : 00;
    441D : 00;
    441E : 00;
    441F : 00;
    4420 : 00;
    4421 : 00;
    4422 : 00;
    4423 : 00;
    4424 : 00;
    4425 : 00;
    4426 : 00;
    4427 : 00;
    4428 : 00;
    4429 : 00;
    442A : 00;
    442B : 00;
    442C : 00;
    442D : 10;
    442E : 10;
    442F : 10;
    4430 : 00;
    4431 : 00;
    4432 : 00;
    4433 : 00;
    4434 : 00;
    4435 : 00;
    4436 : 00;
    4437 : 00;
    4438 : 00;
    4439 : 00;
    443A : 00;
    443B : 00;
    443C : 00;
    443D : 00;
    443E : 00;
    443F : 00;
    4440 : 00;
    4441 : 00;
    4442 : 00;
    4443 : 00;
    4444 : 00;
    4445 : 00;
    4446 : 00;
    4447 : 00;
    4448 : 00;
    4449 : 00;
    444A : 00;
    444B : 00;
    444C : 00;
    444D : 00;
    444E : 00;
    444F : 00;
    4450 : 00;
    4451 : 00;
    4452 : 00;
    4453 : 00;
    4454 : 00;
    4455 : 00;
    4456 : 00;
    4457 : 00;
    4458 : 00;
    4459 : 00;
    445A : 00;
    445B : 00;
    445C : 00;
    445D : 00;
    445E : 00;
    445F : 00;
    4460 : 00;
    4461 : 00;
    4462 : 00;
    4463 : 00;
    4464 : 00;
    4465 : 00;
    4466 : 10;
    4467 : 10;
    4468 : 10;
    4469 : 10;
    446A : 10;
    446B : 10;
    446C : 10;
    446D : 10;
    446E : 10;
    446F : 10;
    4470 : 10;
    4471 : 10;
    4472 : 10;
    4473 : 10;
    4474 : 10;
    4475 : 10;
    4476 : 10;
    4477 : 10;
    4478 : 00;
    4479 : 00;
    447A : 00;
    447B : 00;
    447C : 00;
    447D : 00;
    447E : 00;
    447F : 00;
    4480 : 00;
    4481 : 00;
    4482 : 00;
    4483 : 00;
    4484 : 00;
    4485 : 00;
    4486 : 00;
    4487 : 00;
    4488 : 00;
    4489 : 00;
    448A : 00;
    448B : 00;
    448C : 00;
    448D : 00;
    448E : 00;
    448F : 00;
    4490 : 00;
    4491 : 00;
    4492 : 00;
    4493 : 00;
    4494 : 00;
    4495 : 00;
    4496 : 00;
    4497 : 00;
    4498 : 00;
    4499 : 00;
    449A : 00;
    449B : 00;
    449C : 00;
    449D : 00;
    449E : 00;
    449F : 00;
    44A0 : 00;
    44A1 : 00;
    44A2 : 00;
    44A3 : 00;
    44A4 : 00;
    44A5 : 00;
    44A6 : 00;
    44A7 : 00;
    44A8 : 00;
    44A9 : 00;
    44AA : 00;
    44AB : 00;
    44AC : 00;
    44AD : 00;
    44AE : 00;
    44AF : 00;
    44B0 : 00;
    44B1 : 00;
    44B2 : 00;
    44B3 : 00;
    44B4 : 00;
    44B5 : 00;
    44B6 : 00;
    44B7 : 00;
    44B8 : 00;
    44B9 : 00;
    44BA : 00;
    44BB : 00;
    44BC : 00;
    44BD : 00;
    44BE : 00;
    44BF : 00;
    44C0 : 00;
    44C1 : 00;
    44C2 : 00;
    44C3 : 00;
    44C4 : 00;
    44C5 : 00;
    44C6 : 00;
    44C7 : 00;
    44C8 : 00;
    44C9 : 00;
    44CA : 00;
    44CB : 00;
    44CC : 00;
    44CD : 00;
    44CE : 00;
    44CF : 00;
    44D0 : 00;
    44D1 : 00;
    44D2 : 00;
    44D3 : 00;
    44D4 : 00;
    44D5 : 00;
    44D6 : 00;
    44D7 : 00;
    44D8 : 00;
    44D9 : 00;
    44DA : 00;
    44DB : 00;
    44DC : 00;
    44DD : 00;
    44DE : 00;
    44DF : 00;
    44E0 : 00;
    44E1 : 00;
    44E2 : 00;
    44E3 : 00;
    44E4 : 00;
    44E5 : 00;
    44E6 : 00;
    44E7 : 00;
    44E8 : 00;
    44E9 : 00;
    44EA : 00;
    44EB : 00;
    44EC : 00;
    44ED : 00;
    44EE : 00;
    44EF : 00;
    44F0 : 00;
    44F1 : 00;
    44F2 : 00;
    44F3 : 00;
    44F4 : 00;
    44F5 : 00;
    44F6 : 00;
    44F7 : 00;
    44F8 : 00;
    44F9 : 00;
    44FA : 00;
    44FB : 00;
    44FC : 00;
    44FD : 00;
    44FE : 00;
    44FF : 00;
    4500 : 00;
    4501 : 00;
    4502 : 00;
    4503 : 00;
    4504 : 00;
    4505 : 00;
    4506 : 00;
    4507 : 00;
    4508 : 00;
    4509 : 00;
    450A : 00;
    450B : 00;
    450C : 00;
    450D : 00;
    450E : 00;
    450F : 00;
    4510 : 00;
    4511 : 00;
    4512 : 00;
    4513 : 00;
    4514 : 00;
    4515 : 10;
    4516 : 10;
    4517 : 10;
    4518 : 10;
    4519 : 10;
    451A : 10;
    451B : 10;
    451C : 10;
    451D : 10;
    451E : 10;
    451F : 10;
    4520 : 10;
    4521 : 10;
    4522 : 10;
    4523 : 10;
    4524 : 10;
    4525 : 00;
    4526 : 00;
    4527 : 00;
    4528 : 00;
    4529 : 00;
    452A : 00;
    452B : 00;
    452C : 00;
    452D : 00;
    452E : 00;
    452F : 00;
    4530 : 00;
    4531 : 00;
    4532 : 00;
    4533 : 00;
    4534 : 00;
    4535 : 00;
    4536 : 00;
    4537 : 00;
    4538 : 00;
    4539 : 00;
    453A : 00;
    453B : 00;
    453C : 00;
    453D : 00;
    453E : 00;
    453F : 00;
    4540 : 00;
    4541 : 00;
    4542 : 00;
    4543 : 00;
    4544 : 00;
    4545 : 00;
    4546 : 00;
    4547 : 00;
    4548 : 00;
    4549 : 00;
    454A : 10;
    454B : 10;
    454C : 10;
    454D : 10;
    454E : 10;
    454F : 00;
    4550 : 00;
    4551 : 00;
    4552 : 00;
    4553 : 00;
    4554 : 00;
    4555 : 00;
    4556 : 00;
    4557 : 00;
    4558 : 00;
    4559 : 00;
    455A : 00;
    455B : 00;
    455C : 00;
    455D : 00;
    455E : 00;
    455F : 00;
    4560 : 00;
    4561 : 00;
    4562 : 00;
    4563 : 00;
    4564 : 00;
    4565 : 00;
    4566 : 10;
    4567 : 10;
    4568 : 10;
    4569 : 00;
    456A : 00;
    456B : 00;
    456C : 00;
    456D : 00;
    456E : 00;
    456F : 00;
    4570 : 00;
    4571 : 00;
    4572 : 00;
    4573 : 00;
    4574 : 00;
    4575 : 00;
    4576 : 00;
    4577 : 00;
    4578 : 00;
    4579 : 00;
    457A : 00;
    457B : 00;
    457C : 00;
    457D : 00;
    457E : 00;
    457F : 00;
    4580 : 00;
    4581 : 00;
    4582 : 00;
    4583 : 00;
    4584 : 00;
    4585 : 00;
    4586 : 00;
    4587 : 00;
    4588 : 00;
    4589 : 00;
    458A : 00;
    458B : 00;
    458C : 00;
    458D : 00;
    458E : 00;
    458F : 00;
    4590 : 00;
    4591 : 00;
    4592 : 00;
    4593 : 00;
    4594 : 00;
    4595 : 00;
    4596 : 00;
    4597 : 00;
    4598 : 00;
    4599 : 00;
    459A : 00;
    459B : 00;
    459C : 00;
    459D : 00;
    459E : 00;
    459F : 10;
    45A0 : 10;
    45A1 : 10;
    45A2 : 10;
    45A3 : 10;
    45A4 : 10;
    45A5 : 10;
    45A6 : 10;
    45A7 : 10;
    45A8 : 10;
    45A9 : 10;
    45AA : 10;
    45AB : 10;
    45AC : 10;
    45AD : 10;
    45AE : 10;
    45AF : 10;
    45B0 : 10;
    45B1 : 00;
    45B2 : 00;
    45B3 : 00;
    45B4 : 00;
    45B5 : 00;
    45B6 : 00;
    45B7 : 00;
    45B8 : 00;
    45B9 : 00;
    45BA : 00;
    45BB : 00;
    45BC : 00;
    45BD : 00;
    45BE : 00;
    45BF : 00;
    45C0 : 00;
    45C1 : 00;
    45C2 : 00;
    45C3 : 00;
    45C4 : 00;
    45C5 : 00;
    45C6 : 00;
    45C7 : 00;
    45C8 : 00;
    45C9 : 00;
    45CA : 00;
    45CB : 00;
    45CC : 00;
    45CD : 00;
    45CE : 00;
    45CF : 00;
    45D0 : 00;
    45D1 : 00;
    45D2 : 00;
    45D3 : 00;
    45D4 : 00;
    45D5 : 00;
    45D6 : 00;
    45D7 : 00;
    45D8 : 00;
    45D9 : 00;
    45DA : 00;
    45DB : 00;
    45DC : 00;
    45DD : 00;
    45DE : 00;
    45DF : 00;
    45E0 : 00;
    45E1 : 00;
    45E2 : 00;
    45E3 : 00;
    45E4 : 00;
    45E5 : 00;
    45E6 : 00;
    45E7 : 00;
    45E8 : 00;
    45E9 : 00;
    45EA : 00;
    45EB : 00;
    45EC : 00;
    45ED : 00;
    45EE : 00;
    45EF : 00;
    45F0 : 00;
    45F1 : 00;
    45F2 : 00;
    45F3 : 00;
    45F4 : 00;
    45F5 : 00;
    45F6 : 00;
    45F7 : 00;
    45F8 : 00;
    45F9 : 00;
    45FA : 00;
    45FB : 00;
    45FC : 00;
    45FD : 00;
    45FE : 00;
    45FF : 00;
    4600 : 00;
    4601 : 00;
    4602 : 00;
    4603 : 00;
    4604 : 00;
    4605 : 00;
    4606 : 00;
    4607 : 00;
    4608 : 00;
    4609 : 00;
    460A : 00;
    460B : 00;
    460C : 00;
    460D : 00;
    460E : 00;
    460F : 00;
    4610 : 00;
    4611 : 00;
    4612 : 00;
    4613 : 00;
    4614 : 00;
    4615 : 00;
    4616 : 00;
    4617 : 00;
    4618 : 00;
    4619 : 00;
    461A : 00;
    461B : 00;
    461C : 00;
    461D : 00;
    461E : 00;
    461F : 00;
    4620 : 00;
    4621 : 00;
    4622 : 00;
    4623 : 00;
    4624 : 00;
    4625 : 00;
    4626 : 00;
    4627 : 00;
    4628 : 00;
    4629 : 00;
    462A : 00;
    462B : 00;
    462C : 00;
    462D : 00;
    462E : 00;
    462F : 00;
    4630 : 00;
    4631 : 00;
    4632 : 00;
    4633 : 00;
    4634 : 00;
    4635 : 00;
    4636 : 00;
    4637 : 00;
    4638 : 00;
    4639 : 00;
    463A : 00;
    463B : 00;
    463C : 00;
    463D : 00;
    463E : 00;
    463F : 00;
    4640 : 00;
    4641 : 00;
    4642 : 00;
    4643 : 00;
    4644 : 00;
    4645 : 00;
    4646 : 00;
    4647 : 00;
    4648 : 00;
    4649 : 00;
    464A : 00;
    464B : 00;
    464C : 00;
    464D : 00;
    464E : 10;
    464F : 10;
    4650 : 10;
    4651 : 10;
    4652 : 10;
    4653 : 10;
    4654 : 10;
    4655 : 10;
    4656 : 10;
    4657 : 10;
    4658 : 10;
    4659 : 10;
    465A : 10;
    465B : 10;
    465C : 10;
    465D : 10;
    465E : 00;
    465F : 00;
    4660 : 00;
    4661 : 00;
    4662 : 00;
    4663 : 00;
    4664 : 00;
    4665 : 00;
    4666 : 00;
    4667 : 00;
    4668 : 00;
    4669 : 00;
    466A : 00;
    466B : 00;
    466C : 00;
    466D : 00;
    466E : 00;
    466F : 00;
    4670 : 00;
    4671 : 00;
    4672 : 00;
    4673 : 00;
    4674 : 00;
    4675 : 00;
    4676 : 00;
    4677 : 00;
    4678 : 00;
    4679 : 00;
    467A : 00;
    467B : 00;
    467C : 00;
    467D : 00;
    467E : 00;
    467F : 00;
    4680 : 00;
    4681 : 00;
    4682 : 00;
    4683 : 10;
    4684 : 10;
    4685 : 10;
    4686 : 10;
    4687 : 10;
    4688 : 00;
    4689 : 00;
    468A : 00;
    468B : 00;
    468C : 00;
    468D : 00;
    468E : 00;
    468F : 00;
    4690 : 00;
    4691 : 00;
    4692 : 00;
    4693 : 00;
    4694 : 00;
    4695 : 00;
    4696 : 00;
    4697 : 00;
    4698 : 00;
    4699 : 00;
    469A : 00;
    469B : 00;
    469C : 00;
    469D : 00;
    469E : 00;
    469F : 10;
    46A0 : 10;
    46A1 : 10;
    46A2 : 00;
    46A3 : 00;
    46A4 : 00;
    46A5 : 00;
    46A6 : 00;
    46A7 : 00;
    46A8 : 00;
    46A9 : 00;
    46AA : 00;
    46AB : 00;
    46AC : 00;
    46AD : 00;
    46AE : 00;
    46AF : 00;
    46B0 : 00;
    46B1 : 00;
    46B2 : 00;
    46B3 : 00;
    46B4 : 00;
    46B5 : 00;
    46B6 : 00;
    46B7 : 00;
    46B8 : 00;
    46B9 : 00;
    46BA : 00;
    46BB : 00;
    46BC : 00;
    46BD : 00;
    46BE : 00;
    46BF : 00;
    46C0 : 00;
    46C1 : 00;
    46C2 : 00;
    46C3 : 00;
    46C4 : 00;
    46C5 : 00;
    46C6 : 00;
    46C7 : 00;
    46C8 : 00;
    46C9 : 00;
    46CA : 00;
    46CB : 00;
    46CC : 00;
    46CD : 00;
    46CE : 00;
    46CF : 00;
    46D0 : 00;
    46D1 : 00;
    46D2 : 00;
    46D3 : 00;
    46D4 : 00;
    46D5 : 00;
    46D6 : 00;
    46D7 : 00;
    46D8 : 10;
    46D9 : 10;
    46DA : 10;
    46DB : 10;
    46DC : 10;
    46DD : 10;
    46DE : 10;
    46DF : 10;
    46E0 : 10;
    46E1 : 10;
    46E2 : 10;
    46E3 : 10;
    46E4 : 10;
    46E5 : 10;
    46E6 : 10;
    46E7 : 10;
    46E8 : 10;
    46E9 : 10;

END;
