-- Memory Initialization File (.mif)
-- Generated from: GameLogoFinal.png
-- Image dimensions: 192x51
-- Color format: 2-bit (00=black, 01=white, 10=gray)
-- Target FPGA: EP3C16F484

DEPTH = 9792;
WIDTH = 2;

ADDRESS_RADIX = HEX;
DATA_RADIX = BIN;

CONTENT
BEGIN

    0 : 10;
    1 : 10;
    2 : 10;
    3 : 10;
    4 : 10;
    5 : 10;
    6 : 00;
    7 : 00;
    8 : 00;
    9 : 00;
    A : 00;
    B : 00;
    C : 00;
    D : 00;
    E : 00;
    F : 00;
    10 : 00;
    11 : 00;
    12 : 00;
    13 : 00;
    14 : 00;
    15 : 00;
    16 : 00;
    17 : 00;
    18 : 00;
    19 : 00;
    1A : 00;
    1B : 00;
    1C : 00;
    1D : 00;
    1E : 00;
    1F : 00;
    20 : 00;
    21 : 00;
    22 : 10;
    23 : 10;
    24 : 10;
    25 : 10;
    26 : 10;
    27 : 10;
    28 : 10;
    29 : 10;
    2A : 10;
    2B : 10;
    2C : 10;
    2D : 10;
    2E : 10;
    2F : 10;
    30 : 10;
    31 : 10;
    32 : 10;
    33 : 10;
    34 : 10;
    35 : 10;
    36 : 10;
    37 : 10;
    38 : 10;
    39 : 10;
    3A : 10;
    3B : 10;
    3C : 10;
    3D : 10;
    3E : 10;
    3F : 10;
    40 : 10;
    41 : 10;
    42 : 10;
    43 : 10;
    44 : 10;
    45 : 10;
    46 : 10;
    47 : 10;
    48 : 10;
    49 : 10;
    4A : 10;
    4B : 10;
    4C : 10;
    4D : 10;
    4E : 10;
    4F : 10;
    50 : 10;
    51 : 10;
    52 : 10;
    53 : 10;
    54 : 10;
    55 : 10;
    56 : 10;
    57 : 10;
    58 : 10;
    59 : 10;
    5A : 10;
    5B : 10;
    5C : 10;
    5D : 10;
    5E : 10;
    5F : 10;
    60 : 10;
    61 : 10;
    62 : 10;
    63 : 10;
    64 : 10;
    65 : 10;
    66 : 10;
    67 : 10;
    68 : 10;
    69 : 10;
    6A : 10;
    6B : 10;
    6C : 10;
    6D : 10;
    6E : 10;
    6F : 10;
    70 : 10;
    71 : 10;
    72 : 10;
    73 : 10;
    74 : 10;
    75 : 00;
    76 : 00;
    77 : 00;
    78 : 00;
    79 : 00;
    7A : 00;
    7B : 00;
    7C : 00;
    7D : 00;
    7E : 00;
    7F : 00;
    80 : 00;
    81 : 00;
    82 : 00;
    83 : 00;
    84 : 00;
    85 : 00;
    86 : 10;
    87 : 10;
    88 : 10;
    89 : 10;
    8A : 10;
    8B : 10;
    8C : 10;
    8D : 10;
    8E : 10;
    8F : 10;
    90 : 10;
    91 : 10;
    92 : 10;
    93 : 10;
    94 : 10;
    95 : 10;
    96 : 10;
    97 : 10;
    98 : 10;
    99 : 10;
    9A : 10;
    9B : 10;
    9C : 10;
    9D : 10;
    9E : 10;
    9F : 10;
    A0 : 10;
    A1 : 10;
    A2 : 10;
    A3 : 10;
    A4 : 10;
    A5 : 10;
    A6 : 10;
    A7 : 10;
    A8 : 10;
    A9 : 10;
    AA : 10;
    AB : 10;
    AC : 10;
    AD : 10;
    AE : 10;
    AF : 10;
    B0 : 10;
    B1 : 10;
    B2 : 10;
    B3 : 00;
    B4 : 00;
    B5 : 00;
    B6 : 00;
    B7 : 00;
    B8 : 00;
    B9 : 00;
    BA : 00;
    BB : 00;
    BC : 00;
    BD : 00;
    BE : 00;
    BF : 10;
    C0 : 10;
    C1 : 10;
    C2 : 10;
    C3 : 10;
    C4 : 10;
    C5 : 10;
    C6 : 00;
    C7 : 00;
    C8 : 00;
    C9 : 00;
    CA : 00;
    CB : 00;
    CC : 00;
    CD : 00;
    CE : 00;
    CF : 00;
    D0 : 00;
    D1 : 00;
    D2 : 00;
    D3 : 00;
    D4 : 00;
    D5 : 00;
    D6 : 00;
    D7 : 00;
    D8 : 00;
    D9 : 00;
    DA : 00;
    DB : 00;
    DC : 00;
    DD : 00;
    DE : 00;
    DF : 00;
    E0 : 00;
    E1 : 00;
    E2 : 10;
    E3 : 10;
    E4 : 10;
    E5 : 10;
    E6 : 10;
    E7 : 10;
    E8 : 10;
    E9 : 10;
    EA : 10;
    EB : 10;
    EC : 10;
    ED : 10;
    EE : 10;
    EF : 10;
    F0 : 10;
    F1 : 10;
    F2 : 10;
    F3 : 10;
    F4 : 10;
    F5 : 10;
    F6 : 10;
    F7 : 10;
    F8 : 10;
    F9 : 10;
    FA : 10;
    FB : 10;
    FC : 10;
    FD : 10;
    FE : 10;
    FF : 10;
    100 : 10;
    101 : 10;
    102 : 10;
    103 : 10;
    104 : 10;
    105 : 10;
    106 : 10;
    107 : 10;
    108 : 10;
    109 : 10;
    10A : 10;
    10B : 10;
    10C : 10;
    10D : 10;
    10E : 10;
    10F : 10;
    110 : 10;
    111 : 10;
    112 : 10;
    113 : 10;
    114 : 10;
    115 : 10;
    116 : 10;
    117 : 10;
    118 : 10;
    119 : 10;
    11A : 10;
    11B : 10;
    11C : 10;
    11D : 10;
    11E : 10;
    11F : 10;
    120 : 10;
    121 : 10;
    122 : 10;
    123 : 10;
    124 : 10;
    125 : 10;
    126 : 10;
    127 : 10;
    128 : 10;
    129 : 10;
    12A : 10;
    12B : 10;
    12C : 10;
    12D : 10;
    12E : 10;
    12F : 10;
    130 : 10;
    131 : 10;
    132 : 10;
    133 : 10;
    134 : 10;
    135 : 00;
    136 : 00;
    137 : 00;
    138 : 00;
    139 : 00;
    13A : 00;
    13B : 00;
    13C : 00;
    13D : 00;
    13E : 00;
    13F : 00;
    140 : 00;
    141 : 00;
    142 : 00;
    143 : 00;
    144 : 00;
    145 : 00;
    146 : 10;
    147 : 10;
    148 : 10;
    149 : 10;
    14A : 10;
    14B : 10;
    14C : 10;
    14D : 10;
    14E : 10;
    14F : 10;
    150 : 10;
    151 : 10;
    152 : 10;
    153 : 10;
    154 : 10;
    155 : 10;
    156 : 10;
    157 : 10;
    158 : 10;
    159 : 10;
    15A : 10;
    15B : 10;
    15C : 10;
    15D : 10;
    15E : 10;
    15F : 10;
    160 : 10;
    161 : 10;
    162 : 10;
    163 : 10;
    164 : 10;
    165 : 10;
    166 : 10;
    167 : 10;
    168 : 10;
    169 : 10;
    16A : 10;
    16B : 10;
    16C : 10;
    16D : 10;
    16E : 10;
    16F : 10;
    170 : 10;
    171 : 10;
    172 : 10;
    173 : 00;
    174 : 00;
    175 : 00;
    176 : 00;
    177 : 00;
    178 : 00;
    179 : 00;
    17A : 00;
    17B : 00;
    17C : 00;
    17D : 00;
    17E : 00;
    17F : 10;
    180 : 10;
    181 : 10;
    182 : 10;
    183 : 10;
    184 : 00;
    185 : 00;
    186 : 01;
    187 : 01;
    188 : 01;
    189 : 01;
    18A : 01;
    18B : 01;
    18C : 01;
    18D : 01;
    18E : 01;
    18F : 01;
    190 : 01;
    191 : 01;
    192 : 01;
    193 : 01;
    194 : 01;
    195 : 00;
    196 : 00;
    197 : 01;
    198 : 01;
    199 : 01;
    19A : 01;
    19B : 01;
    19C : 01;
    19D : 01;
    19E : 01;
    19F : 01;
    1A0 : 00;
    1A1 : 00;
    1A2 : 10;
    1A3 : 10;
    1A4 : 10;
    1A5 : 10;
    1A6 : 10;
    1A7 : 10;
    1A8 : 10;
    1A9 : 10;
    1AA : 10;
    1AB : 10;
    1AC : 10;
    1AD : 10;
    1AE : 10;
    1AF : 10;
    1B0 : 10;
    1B1 : 10;
    1B2 : 10;
    1B3 : 10;
    1B4 : 10;
    1B5 : 10;
    1B6 : 10;
    1B7 : 10;
    1B8 : 10;
    1B9 : 10;
    1BA : 10;
    1BB : 10;
    1BC : 10;
    1BD : 10;
    1BE : 10;
    1BF : 10;
    1C0 : 10;
    1C1 : 10;
    1C2 : 10;
    1C3 : 10;
    1C4 : 10;
    1C5 : 10;
    1C6 : 10;
    1C7 : 10;
    1C8 : 10;
    1C9 : 10;
    1CA : 10;
    1CB : 10;
    1CC : 10;
    1CD : 10;
    1CE : 10;
    1CF : 10;
    1D0 : 10;
    1D1 : 10;
    1D2 : 10;
    1D3 : 10;
    1D4 : 10;
    1D5 : 10;
    1D6 : 10;
    1D7 : 10;
    1D8 : 10;
    1D9 : 10;
    1DA : 10;
    1DB : 10;
    1DC : 10;
    1DD : 10;
    1DE : 10;
    1DF : 10;
    1E0 : 10;
    1E1 : 10;
    1E2 : 10;
    1E3 : 10;
    1E4 : 10;
    1E5 : 10;
    1E6 : 10;
    1E7 : 10;
    1E8 : 10;
    1E9 : 10;
    1EA : 10;
    1EB : 10;
    1EC : 10;
    1ED : 10;
    1EE : 10;
    1EF : 10;
    1F0 : 10;
    1F1 : 10;
    1F2 : 10;
    1F3 : 10;
    1F4 : 10;
    1F5 : 00;
    1F6 : 00;
    1F7 : 01;
    1F8 : 01;
    1F9 : 01;
    1FA : 01;
    1FB : 01;
    1FC : 01;
    1FD : 01;
    1FE : 01;
    1FF : 01;
    200 : 01;
    201 : 01;
    202 : 01;
    203 : 01;
    204 : 01;
    205 : 01;
    206 : 00;
    207 : 00;
    208 : 10;
    209 : 10;
    20A : 10;
    20B : 10;
    20C : 10;
    20D : 10;
    20E : 10;
    20F : 10;
    210 : 10;
    211 : 10;
    212 : 10;
    213 : 10;
    214 : 10;
    215 : 10;
    216 : 10;
    217 : 10;
    218 : 10;
    219 : 10;
    21A : 10;
    21B : 10;
    21C : 10;
    21D : 10;
    21E : 10;
    21F : 10;
    220 : 10;
    221 : 10;
    222 : 10;
    223 : 10;
    224 : 10;
    225 : 10;
    226 : 10;
    227 : 10;
    228 : 10;
    229 : 10;
    22A : 10;
    22B : 10;
    22C : 10;
    22D : 10;
    22E : 10;
    22F : 10;
    230 : 10;
    231 : 10;
    232 : 10;
    233 : 00;
    234 : 00;
    235 : 01;
    236 : 01;
    237 : 01;
    238 : 01;
    239 : 01;
    23A : 01;
    23B : 01;
    23C : 01;
    23D : 00;
    23E : 00;
    23F : 10;
    240 : 10;
    241 : 10;
    242 : 10;
    243 : 10;
    244 : 00;
    245 : 00;
    246 : 01;
    247 : 01;
    248 : 01;
    249 : 01;
    24A : 01;
    24B : 01;
    24C : 01;
    24D : 01;
    24E : 01;
    24F : 01;
    250 : 01;
    251 : 01;
    252 : 01;
    253 : 01;
    254 : 01;
    255 : 00;
    256 : 00;
    257 : 01;
    258 : 01;
    259 : 01;
    25A : 01;
    25B : 01;
    25C : 01;
    25D : 01;
    25E : 01;
    25F : 01;
    260 : 00;
    261 : 00;
    262 : 10;
    263 : 10;
    264 : 10;
    265 : 10;
    266 : 10;
    267 : 10;
    268 : 10;
    269 : 10;
    26A : 10;
    26B : 10;
    26C : 10;
    26D : 10;
    26E : 10;
    26F : 10;
    270 : 10;
    271 : 10;
    272 : 10;
    273 : 10;
    274 : 10;
    275 : 10;
    276 : 10;
    277 : 10;
    278 : 10;
    279 : 10;
    27A : 10;
    27B : 10;
    27C : 10;
    27D : 10;
    27E : 10;
    27F : 10;
    280 : 10;
    281 : 10;
    282 : 10;
    283 : 10;
    284 : 10;
    285 : 10;
    286 : 10;
    287 : 10;
    288 : 10;
    289 : 10;
    28A : 10;
    28B : 10;
    28C : 10;
    28D : 10;
    28E : 10;
    28F : 10;
    290 : 10;
    291 : 10;
    292 : 10;
    293 : 10;
    294 : 10;
    295 : 10;
    296 : 10;
    297 : 10;
    298 : 10;
    299 : 10;
    29A : 10;
    29B : 10;
    29C : 10;
    29D : 10;
    29E : 10;
    29F : 10;
    2A0 : 10;
    2A1 : 10;
    2A2 : 10;
    2A3 : 10;
    2A4 : 10;
    2A5 : 10;
    2A6 : 10;
    2A7 : 10;
    2A8 : 10;
    2A9 : 10;
    2AA : 10;
    2AB : 10;
    2AC : 10;
    2AD : 10;
    2AE : 10;
    2AF : 10;
    2B0 : 10;
    2B1 : 10;
    2B2 : 10;
    2B3 : 10;
    2B4 : 10;
    2B5 : 00;
    2B6 : 00;
    2B7 : 01;
    2B8 : 01;
    2B9 : 01;
    2BA : 01;
    2BB : 01;
    2BC : 01;
    2BD : 01;
    2BE : 01;
    2BF : 01;
    2C0 : 01;
    2C1 : 01;
    2C2 : 01;
    2C3 : 01;
    2C4 : 01;
    2C5 : 01;
    2C6 : 00;
    2C7 : 00;
    2C8 : 10;
    2C9 : 10;
    2CA : 10;
    2CB : 10;
    2CC : 10;
    2CD : 10;
    2CE : 10;
    2CF : 10;
    2D0 : 10;
    2D1 : 10;
    2D2 : 10;
    2D3 : 10;
    2D4 : 10;
    2D5 : 10;
    2D6 : 10;
    2D7 : 10;
    2D8 : 10;
    2D9 : 10;
    2DA : 10;
    2DB : 10;
    2DC : 10;
    2DD : 10;
    2DE : 10;
    2DF : 10;
    2E0 : 10;
    2E1 : 10;
    2E2 : 10;
    2E3 : 10;
    2E4 : 10;
    2E5 : 10;
    2E6 : 10;
    2E7 : 10;
    2E8 : 10;
    2E9 : 10;
    2EA : 10;
    2EB : 10;
    2EC : 10;
    2ED : 10;
    2EE : 10;
    2EF : 10;
    2F0 : 10;
    2F1 : 10;
    2F2 : 10;
    2F3 : 00;
    2F4 : 00;
    2F5 : 01;
    2F6 : 01;
    2F7 : 01;
    2F8 : 01;
    2F9 : 01;
    2FA : 01;
    2FB : 01;
    2FC : 01;
    2FD : 00;
    2FE : 00;
    2FF : 10;
    300 : 10;
    301 : 10;
    302 : 00;
    303 : 00;
    304 : 01;
    305 : 01;
    306 : 01;
    307 : 01;
    308 : 01;
    309 : 01;
    30A : 01;
    30B : 01;
    30C : 01;
    30D : 01;
    30E : 01;
    30F : 01;
    310 : 01;
    311 : 01;
    312 : 01;
    313 : 01;
    314 : 01;
    315 : 00;
    316 : 00;
    317 : 01;
    318 : 01;
    319 : 01;
    31A : 01;
    31B : 01;
    31C : 01;
    31D : 01;
    31E : 01;
    31F : 01;
    320 : 00;
    321 : 00;
    322 : 10;
    323 : 10;
    324 : 10;
    325 : 10;
    326 : 10;
    327 : 10;
    328 : 10;
    329 : 10;
    32A : 10;
    32B : 10;
    32C : 10;
    32D : 10;
    32E : 10;
    32F : 10;
    330 : 10;
    331 : 10;
    332 : 10;
    333 : 10;
    334 : 10;
    335 : 10;
    336 : 10;
    337 : 10;
    338 : 10;
    339 : 10;
    33A : 10;
    33B : 10;
    33C : 10;
    33D : 10;
    33E : 10;
    33F : 10;
    340 : 10;
    341 : 10;
    342 : 10;
    343 : 10;
    344 : 10;
    345 : 10;
    346 : 10;
    347 : 10;
    348 : 10;
    349 : 10;
    34A : 10;
    34B : 10;
    34C : 10;
    34D : 10;
    34E : 10;
    34F : 10;
    350 : 10;
    351 : 10;
    352 : 10;
    353 : 10;
    354 : 10;
    355 : 10;
    356 : 10;
    357 : 10;
    358 : 10;
    359 : 10;
    35A : 10;
    35B : 10;
    35C : 10;
    35D : 10;
    35E : 10;
    35F : 10;
    360 : 10;
    361 : 10;
    362 : 10;
    363 : 10;
    364 : 10;
    365 : 10;
    366 : 10;
    367 : 10;
    368 : 10;
    369 : 10;
    36A : 10;
    36B : 10;
    36C : 10;
    36D : 10;
    36E : 10;
    36F : 10;
    370 : 10;
    371 : 10;
    372 : 10;
    373 : 10;
    374 : 10;
    375 : 00;
    376 : 00;
    377 : 01;
    378 : 01;
    379 : 01;
    37A : 01;
    37B : 01;
    37C : 01;
    37D : 01;
    37E : 01;
    37F : 01;
    380 : 01;
    381 : 01;
    382 : 01;
    383 : 01;
    384 : 01;
    385 : 01;
    386 : 01;
    387 : 01;
    388 : 00;
    389 : 00;
    38A : 10;
    38B : 10;
    38C : 10;
    38D : 10;
    38E : 10;
    38F : 10;
    390 : 10;
    391 : 10;
    392 : 10;
    393 : 10;
    394 : 10;
    395 : 10;
    396 : 10;
    397 : 10;
    398 : 10;
    399 : 10;
    39A : 10;
    39B : 10;
    39C : 10;
    39D : 10;
    39E : 10;
    39F : 10;
    3A0 : 10;
    3A1 : 10;
    3A2 : 10;
    3A3 : 10;
    3A4 : 10;
    3A5 : 10;
    3A6 : 10;
    3A7 : 10;
    3A8 : 10;
    3A9 : 10;
    3AA : 10;
    3AB : 10;
    3AC : 10;
    3AD : 10;
    3AE : 10;
    3AF : 10;
    3B0 : 10;
    3B1 : 10;
    3B2 : 10;
    3B3 : 00;
    3B4 : 00;
    3B5 : 01;
    3B6 : 01;
    3B7 : 01;
    3B8 : 01;
    3B9 : 01;
    3BA : 01;
    3BB : 01;
    3BC : 01;
    3BD : 00;
    3BE : 00;
    3BF : 10;
    3C0 : 10;
    3C1 : 10;
    3C2 : 00;
    3C3 : 00;
    3C4 : 01;
    3C5 : 01;
    3C6 : 01;
    3C7 : 01;
    3C8 : 01;
    3C9 : 01;
    3CA : 01;
    3CB : 01;
    3CC : 01;
    3CD : 01;
    3CE : 01;
    3CF : 01;
    3D0 : 01;
    3D1 : 01;
    3D2 : 01;
    3D3 : 01;
    3D4 : 01;
    3D5 : 00;
    3D6 : 00;
    3D7 : 01;
    3D8 : 01;
    3D9 : 01;
    3DA : 01;
    3DB : 01;
    3DC : 01;
    3DD : 01;
    3DE : 01;
    3DF : 01;
    3E0 : 00;
    3E1 : 00;
    3E2 : 10;
    3E3 : 10;
    3E4 : 10;
    3E5 : 10;
    3E6 : 10;
    3E7 : 10;
    3E8 : 10;
    3E9 : 10;
    3EA : 10;
    3EB : 10;
    3EC : 10;
    3ED : 10;
    3EE : 10;
    3EF : 10;
    3F0 : 10;
    3F1 : 10;
    3F2 : 10;
    3F3 : 10;
    3F4 : 10;
    3F5 : 10;
    3F6 : 10;
    3F7 : 10;
    3F8 : 10;
    3F9 : 10;
    3FA : 10;
    3FB : 10;
    3FC : 10;
    3FD : 10;
    3FE : 10;
    3FF : 10;
    400 : 10;
    401 : 10;
    402 : 10;
    403 : 10;
    404 : 10;
    405 : 10;
    406 : 10;
    407 : 10;
    408 : 10;
    409 : 10;
    40A : 10;
    40B : 10;
    40C : 10;
    40D : 10;
    40E : 10;
    40F : 10;
    410 : 10;
    411 : 10;
    412 : 10;
    413 : 10;
    414 : 10;
    415 : 10;
    416 : 10;
    417 : 10;
    418 : 10;
    419 : 10;
    41A : 10;
    41B : 10;
    41C : 10;
    41D : 10;
    41E : 10;
    41F : 10;
    420 : 10;
    421 : 10;
    422 : 10;
    423 : 10;
    424 : 10;
    425 : 10;
    426 : 10;
    427 : 10;
    428 : 10;
    429 : 10;
    42A : 10;
    42B : 10;
    42C : 10;
    42D : 10;
    42E : 10;
    42F : 10;
    430 : 10;
    431 : 10;
    432 : 10;
    433 : 10;
    434 : 10;
    435 : 00;
    436 : 00;
    437 : 01;
    438 : 01;
    439 : 01;
    43A : 01;
    43B : 01;
    43C : 01;
    43D : 01;
    43E : 01;
    43F : 01;
    440 : 01;
    441 : 01;
    442 : 01;
    443 : 01;
    444 : 01;
    445 : 01;
    446 : 01;
    447 : 01;
    448 : 00;
    449 : 00;
    44A : 10;
    44B : 10;
    44C : 10;
    44D : 10;
    44E : 10;
    44F : 10;
    450 : 10;
    451 : 10;
    452 : 10;
    453 : 10;
    454 : 10;
    455 : 10;
    456 : 10;
    457 : 10;
    458 : 10;
    459 : 10;
    45A : 10;
    45B : 10;
    45C : 10;
    45D : 10;
    45E : 10;
    45F : 10;
    460 : 10;
    461 : 10;
    462 : 10;
    463 : 10;
    464 : 10;
    465 : 10;
    466 : 10;
    467 : 10;
    468 : 10;
    469 : 10;
    46A : 10;
    46B : 10;
    46C : 10;
    46D : 10;
    46E : 10;
    46F : 10;
    470 : 10;
    471 : 10;
    472 : 10;
    473 : 00;
    474 : 00;
    475 : 01;
    476 : 01;
    477 : 01;
    478 : 01;
    479 : 01;
    47A : 01;
    47B : 01;
    47C : 01;
    47D : 00;
    47E : 00;
    47F : 10;
    480 : 00;
    481 : 00;
    482 : 01;
    483 : 01;
    484 : 01;
    485 : 01;
    486 : 01;
    487 : 01;
    488 : 01;
    489 : 01;
    48A : 01;
    48B : 01;
    48C : 01;
    48D : 01;
    48E : 01;
    48F : 01;
    490 : 01;
    491 : 01;
    492 : 01;
    493 : 01;
    494 : 01;
    495 : 00;
    496 : 00;
    497 : 01;
    498 : 01;
    499 : 01;
    49A : 01;
    49B : 01;
    49C : 01;
    49D : 01;
    49E : 01;
    49F : 01;
    4A0 : 00;
    4A1 : 00;
    4A2 : 10;
    4A3 : 10;
    4A4 : 10;
    4A5 : 10;
    4A6 : 10;
    4A7 : 10;
    4A8 : 10;
    4A9 : 10;
    4AA : 10;
    4AB : 10;
    4AC : 10;
    4AD : 10;
    4AE : 10;
    4AF : 10;
    4B0 : 10;
    4B1 : 10;
    4B2 : 10;
    4B3 : 10;
    4B4 : 10;
    4B5 : 10;
    4B6 : 10;
    4B7 : 10;
    4B8 : 10;
    4B9 : 10;
    4BA : 10;
    4BB : 10;
    4BC : 10;
    4BD : 10;
    4BE : 10;
    4BF : 10;
    4C0 : 10;
    4C1 : 10;
    4C2 : 10;
    4C3 : 10;
    4C4 : 10;
    4C5 : 10;
    4C6 : 10;
    4C7 : 10;
    4C8 : 10;
    4C9 : 10;
    4CA : 10;
    4CB : 10;
    4CC : 10;
    4CD : 10;
    4CE : 10;
    4CF : 10;
    4D0 : 10;
    4D1 : 10;
    4D2 : 10;
    4D3 : 10;
    4D4 : 10;
    4D5 : 10;
    4D6 : 10;
    4D7 : 10;
    4D8 : 10;
    4D9 : 10;
    4DA : 10;
    4DB : 10;
    4DC : 10;
    4DD : 10;
    4DE : 10;
    4DF : 10;
    4E0 : 10;
    4E1 : 10;
    4E2 : 10;
    4E3 : 10;
    4E4 : 10;
    4E5 : 10;
    4E6 : 10;
    4E7 : 10;
    4E8 : 10;
    4E9 : 10;
    4EA : 10;
    4EB : 10;
    4EC : 10;
    4ED : 10;
    4EE : 10;
    4EF : 10;
    4F0 : 10;
    4F1 : 10;
    4F2 : 10;
    4F3 : 10;
    4F4 : 10;
    4F5 : 00;
    4F6 : 00;
    4F7 : 01;
    4F8 : 01;
    4F9 : 01;
    4FA : 01;
    4FB : 01;
    4FC : 01;
    4FD : 01;
    4FE : 01;
    4FF : 01;
    500 : 01;
    501 : 01;
    502 : 01;
    503 : 01;
    504 : 01;
    505 : 01;
    506 : 01;
    507 : 01;
    508 : 01;
    509 : 01;
    50A : 00;
    50B : 00;
    50C : 10;
    50D : 10;
    50E : 10;
    50F : 10;
    510 : 10;
    511 : 10;
    512 : 10;
    513 : 10;
    514 : 10;
    515 : 10;
    516 : 10;
    517 : 10;
    518 : 10;
    519 : 10;
    51A : 10;
    51B : 10;
    51C : 10;
    51D : 10;
    51E : 10;
    51F : 10;
    520 : 10;
    521 : 10;
    522 : 10;
    523 : 10;
    524 : 10;
    525 : 10;
    526 : 10;
    527 : 10;
    528 : 10;
    529 : 10;
    52A : 10;
    52B : 10;
    52C : 10;
    52D : 10;
    52E : 10;
    52F : 10;
    530 : 10;
    531 : 10;
    532 : 10;
    533 : 00;
    534 : 00;
    535 : 01;
    536 : 01;
    537 : 01;
    538 : 01;
    539 : 01;
    53A : 01;
    53B : 01;
    53C : 01;
    53D : 00;
    53E : 00;
    53F : 10;
    540 : 00;
    541 : 00;
    542 : 01;
    543 : 01;
    544 : 01;
    545 : 01;
    546 : 01;
    547 : 01;
    548 : 01;
    549 : 01;
    54A : 01;
    54B : 01;
    54C : 01;
    54D : 01;
    54E : 01;
    54F : 01;
    550 : 01;
    551 : 01;
    552 : 01;
    553 : 01;
    554 : 01;
    555 : 00;
    556 : 00;
    557 : 01;
    558 : 01;
    559 : 01;
    55A : 01;
    55B : 01;
    55C : 01;
    55D : 01;
    55E : 01;
    55F : 01;
    560 : 00;
    561 : 00;
    562 : 10;
    563 : 10;
    564 : 10;
    565 : 10;
    566 : 10;
    567 : 10;
    568 : 10;
    569 : 10;
    56A : 10;
    56B : 10;
    56C : 10;
    56D : 10;
    56E : 10;
    56F : 10;
    570 : 10;
    571 : 10;
    572 : 10;
    573 : 10;
    574 : 10;
    575 : 10;
    576 : 10;
    577 : 10;
    578 : 10;
    579 : 10;
    57A : 10;
    57B : 10;
    57C : 10;
    57D : 10;
    57E : 10;
    57F : 10;
    580 : 10;
    581 : 10;
    582 : 10;
    583 : 10;
    584 : 10;
    585 : 10;
    586 : 10;
    587 : 10;
    588 : 10;
    589 : 10;
    58A : 10;
    58B : 10;
    58C : 10;
    58D : 10;
    58E : 10;
    58F : 10;
    590 : 10;
    591 : 10;
    592 : 10;
    593 : 10;
    594 : 10;
    595 : 10;
    596 : 10;
    597 : 10;
    598 : 10;
    599 : 10;
    59A : 10;
    59B : 10;
    59C : 10;
    59D : 10;
    59E : 10;
    59F : 10;
    5A0 : 10;
    5A1 : 10;
    5A2 : 10;
    5A3 : 10;
    5A4 : 10;
    5A5 : 10;
    5A6 : 10;
    5A7 : 10;
    5A8 : 10;
    5A9 : 10;
    5AA : 10;
    5AB : 10;
    5AC : 10;
    5AD : 10;
    5AE : 10;
    5AF : 10;
    5B0 : 10;
    5B1 : 10;
    5B2 : 10;
    5B3 : 10;
    5B4 : 10;
    5B5 : 00;
    5B6 : 00;
    5B7 : 01;
    5B8 : 01;
    5B9 : 01;
    5BA : 01;
    5BB : 01;
    5BC : 01;
    5BD : 01;
    5BE : 01;
    5BF : 01;
    5C0 : 01;
    5C1 : 01;
    5C2 : 01;
    5C3 : 01;
    5C4 : 01;
    5C5 : 01;
    5C6 : 01;
    5C7 : 01;
    5C8 : 01;
    5C9 : 01;
    5CA : 00;
    5CB : 00;
    5CC : 10;
    5CD : 10;
    5CE : 10;
    5CF : 10;
    5D0 : 10;
    5D1 : 10;
    5D2 : 10;
    5D3 : 10;
    5D4 : 10;
    5D5 : 10;
    5D6 : 10;
    5D7 : 10;
    5D8 : 10;
    5D9 : 10;
    5DA : 10;
    5DB : 10;
    5DC : 10;
    5DD : 10;
    5DE : 10;
    5DF : 10;
    5E0 : 10;
    5E1 : 10;
    5E2 : 10;
    5E3 : 10;
    5E4 : 10;
    5E5 : 10;
    5E6 : 10;
    5E7 : 10;
    5E8 : 10;
    5E9 : 10;
    5EA : 10;
    5EB : 10;
    5EC : 10;
    5ED : 10;
    5EE : 10;
    5EF : 10;
    5F0 : 10;
    5F1 : 10;
    5F2 : 10;
    5F3 : 00;
    5F4 : 00;
    5F5 : 01;
    5F6 : 01;
    5F7 : 01;
    5F8 : 01;
    5F9 : 01;
    5FA : 01;
    5FB : 01;
    5FC : 01;
    5FD : 00;
    5FE : 00;
    5FF : 10;
    600 : 00;
    601 : 00;
    602 : 01;
    603 : 01;
    604 : 01;
    605 : 01;
    606 : 01;
    607 : 01;
    608 : 01;
    609 : 01;
    60A : 01;
    60B : 01;
    60C : 01;
    60D : 01;
    60E : 01;
    60F : 01;
    610 : 01;
    611 : 01;
    612 : 01;
    613 : 01;
    614 : 01;
    615 : 00;
    616 : 00;
    617 : 01;
    618 : 01;
    619 : 01;
    61A : 01;
    61B : 01;
    61C : 01;
    61D : 01;
    61E : 01;
    61F : 01;
    620 : 00;
    621 : 00;
    622 : 10;
    623 : 10;
    624 : 10;
    625 : 10;
    626 : 10;
    627 : 10;
    628 : 10;
    629 : 10;
    62A : 10;
    62B : 10;
    62C : 10;
    62D : 10;
    62E : 10;
    62F : 10;
    630 : 10;
    631 : 10;
    632 : 10;
    633 : 10;
    634 : 10;
    635 : 10;
    636 : 10;
    637 : 10;
    638 : 10;
    639 : 10;
    63A : 10;
    63B : 10;
    63C : 10;
    63D : 10;
    63E : 10;
    63F : 10;
    640 : 10;
    641 : 10;
    642 : 10;
    643 : 10;
    644 : 10;
    645 : 10;
    646 : 10;
    647 : 10;
    648 : 10;
    649 : 10;
    64A : 10;
    64B : 10;
    64C : 10;
    64D : 10;
    64E : 10;
    64F : 10;
    650 : 10;
    651 : 10;
    652 : 10;
    653 : 10;
    654 : 10;
    655 : 10;
    656 : 10;
    657 : 10;
    658 : 10;
    659 : 10;
    65A : 10;
    65B : 10;
    65C : 10;
    65D : 10;
    65E : 10;
    65F : 10;
    660 : 10;
    661 : 10;
    662 : 10;
    663 : 10;
    664 : 10;
    665 : 10;
    666 : 10;
    667 : 10;
    668 : 10;
    669 : 10;
    66A : 10;
    66B : 10;
    66C : 10;
    66D : 10;
    66E : 10;
    66F : 10;
    670 : 10;
    671 : 10;
    672 : 10;
    673 : 10;
    674 : 10;
    675 : 00;
    676 : 00;
    677 : 01;
    678 : 01;
    679 : 01;
    67A : 01;
    67B : 01;
    67C : 01;
    67D : 01;
    67E : 01;
    67F : 01;
    680 : 01;
    681 : 01;
    682 : 01;
    683 : 01;
    684 : 01;
    685 : 01;
    686 : 01;
    687 : 01;
    688 : 01;
    689 : 01;
    68A : 00;
    68B : 00;
    68C : 00;
    68D : 10;
    68E : 10;
    68F : 10;
    690 : 10;
    691 : 10;
    692 : 10;
    693 : 10;
    694 : 10;
    695 : 10;
    696 : 10;
    697 : 10;
    698 : 10;
    699 : 10;
    69A : 10;
    69B : 10;
    69C : 10;
    69D : 10;
    69E : 10;
    69F : 10;
    6A0 : 10;
    6A1 : 10;
    6A2 : 10;
    6A3 : 10;
    6A4 : 10;
    6A5 : 10;
    6A6 : 10;
    6A7 : 10;
    6A8 : 10;
    6A9 : 10;
    6AA : 10;
    6AB : 10;
    6AC : 10;
    6AD : 10;
    6AE : 10;
    6AF : 10;
    6B0 : 10;
    6B1 : 10;
    6B2 : 10;
    6B3 : 00;
    6B4 : 00;
    6B5 : 01;
    6B6 : 01;
    6B7 : 01;
    6B8 : 01;
    6B9 : 01;
    6BA : 01;
    6BB : 01;
    6BC : 01;
    6BD : 00;
    6BE : 00;
    6BF : 10;
    6C0 : 00;
    6C1 : 00;
    6C2 : 01;
    6C3 : 01;
    6C4 : 01;
    6C5 : 01;
    6C6 : 01;
    6C7 : 01;
    6C8 : 01;
    6C9 : 01;
    6CA : 01;
    6CB : 01;
    6CC : 01;
    6CD : 01;
    6CE : 01;
    6CF : 01;
    6D0 : 01;
    6D1 : 01;
    6D2 : 01;
    6D3 : 01;
    6D4 : 01;
    6D5 : 00;
    6D6 : 00;
    6D7 : 01;
    6D8 : 01;
    6D9 : 01;
    6DA : 01;
    6DB : 01;
    6DC : 01;
    6DD : 01;
    6DE : 01;
    6DF : 01;
    6E0 : 00;
    6E1 : 00;
    6E2 : 10;
    6E3 : 10;
    6E4 : 10;
    6E5 : 10;
    6E6 : 10;
    6E7 : 10;
    6E8 : 10;
    6E9 : 10;
    6EA : 10;
    6EB : 10;
    6EC : 10;
    6ED : 10;
    6EE : 10;
    6EF : 10;
    6F0 : 10;
    6F1 : 10;
    6F2 : 10;
    6F3 : 10;
    6F4 : 10;
    6F5 : 10;
    6F6 : 10;
    6F7 : 10;
    6F8 : 10;
    6F9 : 10;
    6FA : 10;
    6FB : 10;
    6FC : 10;
    6FD : 10;
    6FE : 10;
    6FF : 10;
    700 : 10;
    701 : 10;
    702 : 10;
    703 : 10;
    704 : 10;
    705 : 10;
    706 : 10;
    707 : 10;
    708 : 10;
    709 : 10;
    70A : 10;
    70B : 10;
    70C : 10;
    70D : 10;
    70E : 10;
    70F : 10;
    710 : 10;
    711 : 10;
    712 : 10;
    713 : 10;
    714 : 10;
    715 : 10;
    716 : 10;
    717 : 10;
    718 : 10;
    719 : 10;
    71A : 10;
    71B : 10;
    71C : 10;
    71D : 10;
    71E : 10;
    71F : 10;
    720 : 00;
    721 : 00;
    722 : 00;
    723 : 00;
    724 : 00;
    725 : 00;
    726 : 00;
    727 : 00;
    728 : 00;
    729 : 00;
    72A : 00;
    72B : 00;
    72C : 00;
    72D : 00;
    72E : 00;
    72F : 00;
    730 : 00;
    731 : 00;
    732 : 00;
    733 : 00;
    734 : 00;
    735 : 00;
    736 : 00;
    737 : 01;
    738 : 01;
    739 : 01;
    73A : 01;
    73B : 01;
    73C : 01;
    73D : 01;
    73E : 01;
    73F : 01;
    740 : 01;
    741 : 01;
    742 : 01;
    743 : 01;
    744 : 01;
    745 : 01;
    746 : 01;
    747 : 01;
    748 : 01;
    749 : 01;
    74A : 00;
    74B : 00;
    74C : 00;
    74D : 00;
    74E : 00;
    74F : 00;
    750 : 00;
    751 : 00;
    752 : 00;
    753 : 00;
    754 : 00;
    755 : 00;
    756 : 00;
    757 : 10;
    758 : 10;
    759 : 10;
    75A : 10;
    75B : 10;
    75C : 10;
    75D : 10;
    75E : 10;
    75F : 10;
    760 : 10;
    761 : 10;
    762 : 10;
    763 : 10;
    764 : 10;
    765 : 10;
    766 : 10;
    767 : 10;
    768 : 10;
    769 : 10;
    76A : 10;
    76B : 10;
    76C : 10;
    76D : 10;
    76E : 10;
    76F : 10;
    770 : 10;
    771 : 10;
    772 : 10;
    773 : 00;
    774 : 00;
    775 : 01;
    776 : 01;
    777 : 01;
    778 : 01;
    779 : 01;
    77A : 01;
    77B : 01;
    77C : 01;
    77D : 00;
    77E : 00;
    77F : 10;
    780 : 00;
    781 : 00;
    782 : 01;
    783 : 01;
    784 : 01;
    785 : 01;
    786 : 01;
    787 : 01;
    788 : 01;
    789 : 01;
    78A : 01;
    78B : 01;
    78C : 01;
    78D : 01;
    78E : 01;
    78F : 01;
    790 : 01;
    791 : 01;
    792 : 01;
    793 : 01;
    794 : 01;
    795 : 00;
    796 : 00;
    797 : 01;
    798 : 01;
    799 : 01;
    79A : 01;
    79B : 01;
    79C : 01;
    79D : 01;
    79E : 01;
    79F : 01;
    7A0 : 00;
    7A1 : 00;
    7A2 : 10;
    7A3 : 10;
    7A4 : 10;
    7A5 : 10;
    7A6 : 10;
    7A7 : 10;
    7A8 : 10;
    7A9 : 10;
    7AA : 10;
    7AB : 10;
    7AC : 10;
    7AD : 10;
    7AE : 10;
    7AF : 10;
    7B0 : 10;
    7B1 : 10;
    7B2 : 10;
    7B3 : 10;
    7B4 : 10;
    7B5 : 10;
    7B6 : 10;
    7B7 : 10;
    7B8 : 10;
    7B9 : 10;
    7BA : 10;
    7BB : 10;
    7BC : 10;
    7BD : 10;
    7BE : 10;
    7BF : 10;
    7C0 : 10;
    7C1 : 10;
    7C2 : 10;
    7C3 : 10;
    7C4 : 10;
    7C5 : 10;
    7C6 : 10;
    7C7 : 10;
    7C8 : 10;
    7C9 : 10;
    7CA : 10;
    7CB : 10;
    7CC : 10;
    7CD : 10;
    7CE : 10;
    7CF : 10;
    7D0 : 10;
    7D1 : 10;
    7D2 : 10;
    7D3 : 10;
    7D4 : 10;
    7D5 : 10;
    7D6 : 10;
    7D7 : 10;
    7D8 : 10;
    7D9 : 10;
    7DA : 10;
    7DB : 10;
    7DC : 10;
    7DD : 10;
    7DE : 10;
    7DF : 10;
    7E0 : 00;
    7E1 : 00;
    7E2 : 00;
    7E3 : 00;
    7E4 : 00;
    7E5 : 00;
    7E6 : 00;
    7E7 : 00;
    7E8 : 00;
    7E9 : 00;
    7EA : 00;
    7EB : 00;
    7EC : 00;
    7ED : 00;
    7EE : 00;
    7EF : 00;
    7F0 : 00;
    7F1 : 00;
    7F2 : 00;
    7F3 : 00;
    7F4 : 00;
    7F5 : 00;
    7F6 : 00;
    7F7 : 01;
    7F8 : 01;
    7F9 : 01;
    7FA : 01;
    7FB : 01;
    7FC : 01;
    7FD : 01;
    7FE : 01;
    7FF : 01;
    800 : 01;
    801 : 01;
    802 : 01;
    803 : 01;
    804 : 01;
    805 : 01;
    806 : 01;
    807 : 01;
    808 : 01;
    809 : 01;
    80A : 00;
    80B : 00;
    80C : 00;
    80D : 00;
    80E : 00;
    80F : 00;
    810 : 00;
    811 : 00;
    812 : 00;
    813 : 00;
    814 : 00;
    815 : 00;
    816 : 00;
    817 : 10;
    818 : 10;
    819 : 10;
    81A : 10;
    81B : 10;
    81C : 10;
    81D : 10;
    81E : 10;
    81F : 10;
    820 : 10;
    821 : 10;
    822 : 10;
    823 : 10;
    824 : 10;
    825 : 10;
    826 : 10;
    827 : 10;
    828 : 10;
    829 : 10;
    82A : 10;
    82B : 10;
    82C : 10;
    82D : 10;
    82E : 10;
    82F : 10;
    830 : 10;
    831 : 10;
    832 : 10;
    833 : 00;
    834 : 00;
    835 : 01;
    836 : 01;
    837 : 01;
    838 : 01;
    839 : 01;
    83A : 01;
    83B : 01;
    83C : 01;
    83D : 00;
    83E : 00;
    83F : 10;
    840 : 00;
    841 : 00;
    842 : 01;
    843 : 01;
    844 : 01;
    845 : 01;
    846 : 01;
    847 : 01;
    848 : 01;
    849 : 01;
    84A : 01;
    84B : 00;
    84C : 00;
    84D : 00;
    84E : 00;
    84F : 00;
    850 : 00;
    851 : 00;
    852 : 00;
    853 : 00;
    854 : 00;
    855 : 00;
    856 : 00;
    857 : 01;
    858 : 01;
    859 : 01;
    85A : 01;
    85B : 01;
    85C : 01;
    85D : 01;
    85E : 01;
    85F : 01;
    860 : 00;
    861 : 00;
    862 : 10;
    863 : 10;
    864 : 10;
    865 : 10;
    866 : 00;
    867 : 00;
    868 : 00;
    869 : 00;
    86A : 00;
    86B : 00;
    86C : 00;
    86D : 00;
    86E : 00;
    86F : 00;
    870 : 00;
    871 : 00;
    872 : 00;
    873 : 00;
    874 : 00;
    875 : 00;
    876 : 00;
    877 : 00;
    878 : 00;
    879 : 00;
    87A : 00;
    87B : 00;
    87C : 00;
    87D : 00;
    87E : 00;
    87F : 00;
    880 : 00;
    881 : 00;
    882 : 00;
    883 : 00;
    884 : 10;
    885 : 10;
    886 : 10;
    887 : 10;
    888 : 10;
    889 : 10;
    88A : 10;
    88B : 00;
    88C : 00;
    88D : 00;
    88E : 00;
    88F : 00;
    890 : 00;
    891 : 00;
    892 : 00;
    893 : 00;
    894 : 00;
    895 : 00;
    896 : 00;
    897 : 00;
    898 : 00;
    899 : 10;
    89A : 10;
    89B : 10;
    89C : 10;
    89D : 10;
    89E : 10;
    89F : 10;
    8A0 : 00;
    8A1 : 00;
    8A2 : 01;
    8A3 : 01;
    8A4 : 01;
    8A5 : 01;
    8A6 : 01;
    8A7 : 01;
    8A8 : 01;
    8A9 : 01;
    8AA : 00;
    8AB : 00;
    8AC : 01;
    8AD : 01;
    8AE : 01;
    8AF : 01;
    8B0 : 01;
    8B1 : 01;
    8B2 : 01;
    8B3 : 01;
    8B4 : 01;
    8B5 : 00;
    8B6 : 00;
    8B7 : 01;
    8B8 : 01;
    8B9 : 01;
    8BA : 01;
    8BB : 01;
    8BC : 01;
    8BD : 01;
    8BE : 01;
    8BF : 00;
    8C0 : 00;
    8C1 : 01;
    8C2 : 01;
    8C3 : 01;
    8C4 : 01;
    8C5 : 01;
    8C6 : 01;
    8C7 : 01;
    8C8 : 01;
    8C9 : 01;
    8CA : 00;
    8CB : 00;
    8CC : 01;
    8CD : 01;
    8CE : 01;
    8CF : 01;
    8D0 : 01;
    8D1 : 01;
    8D2 : 01;
    8D3 : 01;
    8D4 : 01;
    8D5 : 00;
    8D6 : 00;
    8D7 : 10;
    8D8 : 10;
    8D9 : 10;
    8DA : 10;
    8DB : 00;
    8DC : 00;
    8DD : 00;
    8DE : 00;
    8DF : 00;
    8E0 : 00;
    8E1 : 00;
    8E2 : 00;
    8E3 : 00;
    8E4 : 00;
    8E5 : 00;
    8E6 : 00;
    8E7 : 00;
    8E8 : 00;
    8E9 : 00;
    8EA : 10;
    8EB : 10;
    8EC : 10;
    8ED : 10;
    8EE : 00;
    8EF : 00;
    8F0 : 00;
    8F1 : 00;
    8F2 : 00;
    8F3 : 00;
    8F4 : 00;
    8F5 : 01;
    8F6 : 01;
    8F7 : 01;
    8F8 : 01;
    8F9 : 01;
    8FA : 01;
    8FB : 01;
    8FC : 01;
    8FD : 00;
    8FE : 00;
    8FF : 10;
    900 : 00;
    901 : 00;
    902 : 01;
    903 : 01;
    904 : 01;
    905 : 01;
    906 : 01;
    907 : 01;
    908 : 01;
    909 : 01;
    90A : 01;
    90B : 00;
    90C : 00;
    90D : 00;
    90E : 00;
    90F : 00;
    910 : 00;
    911 : 00;
    912 : 00;
    913 : 00;
    914 : 00;
    915 : 00;
    916 : 00;
    917 : 01;
    918 : 01;
    919 : 01;
    91A : 01;
    91B : 01;
    91C : 01;
    91D : 01;
    91E : 01;
    91F : 01;
    920 : 00;
    921 : 00;
    922 : 10;
    923 : 10;
    924 : 10;
    925 : 10;
    926 : 00;
    927 : 00;
    928 : 00;
    929 : 00;
    92A : 00;
    92B : 00;
    92C : 00;
    92D : 00;
    92E : 00;
    92F : 00;
    930 : 00;
    931 : 00;
    932 : 00;
    933 : 00;
    934 : 00;
    935 : 00;
    936 : 00;
    937 : 00;
    938 : 00;
    939 : 00;
    93A : 00;
    93B : 00;
    93C : 00;
    93D : 00;
    93E : 00;
    93F : 00;
    940 : 00;
    941 : 00;
    942 : 00;
    943 : 00;
    944 : 10;
    945 : 10;
    946 : 10;
    947 : 10;
    948 : 10;
    949 : 10;
    94A : 10;
    94B : 00;
    94C : 00;
    94D : 00;
    94E : 00;
    94F : 00;
    950 : 00;
    951 : 00;
    952 : 00;
    953 : 00;
    954 : 00;
    955 : 00;
    956 : 00;
    957 : 00;
    958 : 00;
    959 : 10;
    95A : 10;
    95B : 10;
    95C : 10;
    95D : 10;
    95E : 10;
    95F : 10;
    960 : 00;
    961 : 00;
    962 : 01;
    963 : 01;
    964 : 01;
    965 : 01;
    966 : 01;
    967 : 01;
    968 : 01;
    969 : 01;
    96A : 00;
    96B : 00;
    96C : 01;
    96D : 01;
    96E : 01;
    96F : 01;
    970 : 01;
    971 : 01;
    972 : 01;
    973 : 01;
    974 : 01;
    975 : 00;
    976 : 00;
    977 : 01;
    978 : 01;
    979 : 01;
    97A : 01;
    97B : 01;
    97C : 01;
    97D : 01;
    97E : 01;
    97F : 00;
    980 : 00;
    981 : 01;
    982 : 01;
    983 : 01;
    984 : 01;
    985 : 01;
    986 : 01;
    987 : 01;
    988 : 01;
    989 : 01;
    98A : 00;
    98B : 00;
    98C : 01;
    98D : 01;
    98E : 01;
    98F : 01;
    990 : 01;
    991 : 01;
    992 : 01;
    993 : 01;
    994 : 01;
    995 : 00;
    996 : 00;
    997 : 10;
    998 : 10;
    999 : 10;
    99A : 10;
    99B : 00;
    99C : 00;
    99D : 00;
    99E : 00;
    99F : 00;
    9A0 : 00;
    9A1 : 00;
    9A2 : 00;
    9A3 : 00;
    9A4 : 00;
    9A5 : 00;
    9A6 : 00;
    9A7 : 00;
    9A8 : 00;
    9A9 : 00;
    9AA : 10;
    9AB : 10;
    9AC : 10;
    9AD : 10;
    9AE : 00;
    9AF : 00;
    9B0 : 00;
    9B1 : 00;
    9B2 : 00;
    9B3 : 00;
    9B4 : 00;
    9B5 : 01;
    9B6 : 01;
    9B7 : 01;
    9B8 : 01;
    9B9 : 01;
    9BA : 01;
    9BB : 01;
    9BC : 01;
    9BD : 00;
    9BE : 00;
    9BF : 10;
    9C0 : 00;
    9C1 : 00;
    9C2 : 01;
    9C3 : 01;
    9C4 : 01;
    9C5 : 01;
    9C6 : 01;
    9C7 : 01;
    9C8 : 01;
    9C9 : 01;
    9CA : 01;
    9CB : 01;
    9CC : 01;
    9CD : 01;
    9CE : 01;
    9CF : 01;
    9D0 : 01;
    9D1 : 01;
    9D2 : 01;
    9D3 : 01;
    9D4 : 01;
    9D5 : 00;
    9D6 : 00;
    9D7 : 01;
    9D8 : 01;
    9D9 : 01;
    9DA : 01;
    9DB : 01;
    9DC : 01;
    9DD : 01;
    9DE : 01;
    9DF : 01;
    9E0 : 00;
    9E1 : 00;
    9E2 : 10;
    9E3 : 10;
    9E4 : 00;
    9E5 : 00;
    9E6 : 01;
    9E7 : 01;
    9E8 : 01;
    9E9 : 01;
    9EA : 01;
    9EB : 01;
    9EC : 01;
    9ED : 01;
    9EE : 01;
    9EF : 01;
    9F0 : 01;
    9F1 : 01;
    9F2 : 01;
    9F3 : 01;
    9F4 : 01;
    9F5 : 00;
    9F6 : 00;
    9F7 : 01;
    9F8 : 01;
    9F9 : 01;
    9FA : 01;
    9FB : 01;
    9FC : 01;
    9FD : 01;
    9FE : 01;
    9FF : 01;
    A00 : 01;
    A01 : 01;
    A02 : 01;
    A03 : 01;
    A04 : 00;
    A05 : 00;
    A06 : 00;
    A07 : 00;
    A08 : 10;
    A09 : 10;
    A0A : 10;
    A0B : 00;
    A0C : 00;
    A0D : 01;
    A0E : 01;
    A0F : 01;
    A10 : 01;
    A11 : 01;
    A12 : 01;
    A13 : 01;
    A14 : 01;
    A15 : 01;
    A16 : 01;
    A17 : 01;
    A18 : 01;
    A19 : 00;
    A1A : 00;
    A1B : 00;
    A1C : 00;
    A1D : 10;
    A1E : 10;
    A1F : 10;
    A20 : 00;
    A21 : 00;
    A22 : 01;
    A23 : 01;
    A24 : 01;
    A25 : 01;
    A26 : 01;
    A27 : 01;
    A28 : 01;
    A29 : 01;
    A2A : 00;
    A2B : 00;
    A2C : 01;
    A2D : 01;
    A2E : 01;
    A2F : 01;
    A30 : 01;
    A31 : 01;
    A32 : 01;
    A33 : 01;
    A34 : 01;
    A35 : 00;
    A36 : 00;
    A37 : 01;
    A38 : 01;
    A39 : 01;
    A3A : 01;
    A3B : 01;
    A3C : 01;
    A3D : 01;
    A3E : 01;
    A3F : 00;
    A40 : 00;
    A41 : 01;
    A42 : 01;
    A43 : 01;
    A44 : 01;
    A45 : 01;
    A46 : 01;
    A47 : 01;
    A48 : 01;
    A49 : 01;
    A4A : 00;
    A4B : 00;
    A4C : 01;
    A4D : 01;
    A4E : 01;
    A4F : 01;
    A50 : 01;
    A51 : 01;
    A52 : 01;
    A53 : 01;
    A54 : 01;
    A55 : 00;
    A56 : 00;
    A57 : 10;
    A58 : 10;
    A59 : 00;
    A5A : 00;
    A5B : 01;
    A5C : 01;
    A5D : 01;
    A5E : 01;
    A5F : 01;
    A60 : 01;
    A61 : 01;
    A62 : 01;
    A63 : 01;
    A64 : 01;
    A65 : 01;
    A66 : 01;
    A67 : 01;
    A68 : 00;
    A69 : 00;
    A6A : 10;
    A6B : 10;
    A6C : 00;
    A6D : 00;
    A6E : 01;
    A6F : 01;
    A70 : 01;
    A71 : 01;
    A72 : 01;
    A73 : 01;
    A74 : 01;
    A75 : 01;
    A76 : 01;
    A77 : 01;
    A78 : 01;
    A79 : 01;
    A7A : 01;
    A7B : 01;
    A7C : 01;
    A7D : 00;
    A7E : 00;
    A7F : 10;
    A80 : 00;
    A81 : 00;
    A82 : 01;
    A83 : 01;
    A84 : 01;
    A85 : 01;
    A86 : 01;
    A87 : 01;
    A88 : 01;
    A89 : 01;
    A8A : 01;
    A8B : 01;
    A8C : 01;
    A8D : 01;
    A8E : 01;
    A8F : 01;
    A90 : 01;
    A91 : 01;
    A92 : 01;
    A93 : 01;
    A94 : 01;
    A95 : 00;
    A96 : 00;
    A97 : 01;
    A98 : 01;
    A99 : 01;
    A9A : 01;
    A9B : 01;
    A9C : 01;
    A9D : 01;
    A9E : 01;
    A9F : 01;
    AA0 : 00;
    AA1 : 00;
    AA2 : 10;
    AA3 : 10;
    AA4 : 00;
    AA5 : 00;
    AA6 : 01;
    AA7 : 01;
    AA8 : 01;
    AA9 : 01;
    AAA : 01;
    AAB : 01;
    AAC : 01;
    AAD : 01;
    AAE : 01;
    AAF : 01;
    AB0 : 01;
    AB1 : 01;
    AB2 : 01;
    AB3 : 01;
    AB4 : 01;
    AB5 : 00;
    AB6 : 00;
    AB7 : 01;
    AB8 : 01;
    AB9 : 01;
    ABA : 01;
    ABB : 01;
    ABC : 01;
    ABD : 01;
    ABE : 01;
    ABF : 01;
    AC0 : 01;
    AC1 : 01;
    AC2 : 01;
    AC3 : 01;
    AC4 : 00;
    AC5 : 00;
    AC6 : 00;
    AC7 : 00;
    AC8 : 10;
    AC9 : 10;
    ACA : 10;
    ACB : 00;
    ACC : 00;
    ACD : 01;
    ACE : 01;
    ACF : 01;
    AD0 : 01;
    AD1 : 01;
    AD2 : 01;
    AD3 : 01;
    AD4 : 01;
    AD5 : 01;
    AD6 : 01;
    AD7 : 01;
    AD8 : 01;
    AD9 : 00;
    ADA : 00;
    ADB : 00;
    ADC : 00;
    ADD : 10;
    ADE : 10;
    ADF : 10;
    AE0 : 00;
    AE1 : 00;
    AE2 : 01;
    AE3 : 01;
    AE4 : 01;
    AE5 : 01;
    AE6 : 01;
    AE7 : 01;
    AE8 : 01;
    AE9 : 01;
    AEA : 00;
    AEB : 00;
    AEC : 01;
    AED : 01;
    AEE : 01;
    AEF : 01;
    AF0 : 01;
    AF1 : 01;
    AF2 : 01;
    AF3 : 01;
    AF4 : 01;
    AF5 : 00;
    AF6 : 00;
    AF7 : 01;
    AF8 : 01;
    AF9 : 01;
    AFA : 01;
    AFB : 01;
    AFC : 01;
    AFD : 01;
    AFE : 01;
    AFF : 00;
    B00 : 00;
    B01 : 01;
    B02 : 01;
    B03 : 01;
    B04 : 01;
    B05 : 01;
    B06 : 01;
    B07 : 01;
    B08 : 01;
    B09 : 01;
    B0A : 00;
    B0B : 00;
    B0C : 01;
    B0D : 01;
    B0E : 01;
    B0F : 01;
    B10 : 01;
    B11 : 01;
    B12 : 01;
    B13 : 01;
    B14 : 01;
    B15 : 00;
    B16 : 00;
    B17 : 10;
    B18 : 10;
    B19 : 00;
    B1A : 00;
    B1B : 01;
    B1C : 01;
    B1D : 01;
    B1E : 01;
    B1F : 01;
    B20 : 01;
    B21 : 01;
    B22 : 01;
    B23 : 01;
    B24 : 01;
    B25 : 01;
    B26 : 01;
    B27 : 01;
    B28 : 00;
    B29 : 00;
    B2A : 10;
    B2B : 10;
    B2C : 00;
    B2D : 00;
    B2E : 01;
    B2F : 01;
    B30 : 01;
    B31 : 01;
    B32 : 01;
    B33 : 01;
    B34 : 01;
    B35 : 01;
    B36 : 01;
    B37 : 01;
    B38 : 01;
    B39 : 01;
    B3A : 01;
    B3B : 01;
    B3C : 01;
    B3D : 00;
    B3E : 00;
    B3F : 10;
    B40 : 00;
    B41 : 00;
    B42 : 01;
    B43 : 01;
    B44 : 01;
    B45 : 01;
    B46 : 01;
    B47 : 01;
    B48 : 01;
    B49 : 01;
    B4A : 01;
    B4B : 01;
    B4C : 01;
    B4D : 01;
    B4E : 01;
    B4F : 01;
    B50 : 01;
    B51 : 01;
    B52 : 01;
    B53 : 01;
    B54 : 01;
    B55 : 00;
    B56 : 00;
    B57 : 01;
    B58 : 01;
    B59 : 01;
    B5A : 01;
    B5B : 01;
    B5C : 01;
    B5D : 01;
    B5E : 01;
    B5F : 01;
    B60 : 00;
    B61 : 00;
    B62 : 00;
    B63 : 00;
    B64 : 01;
    B65 : 01;
    B66 : 01;
    B67 : 01;
    B68 : 01;
    B69 : 01;
    B6A : 01;
    B6B : 01;
    B6C : 01;
    B6D : 01;
    B6E : 01;
    B6F : 01;
    B70 : 01;
    B71 : 01;
    B72 : 01;
    B73 : 01;
    B74 : 01;
    B75 : 00;
    B76 : 00;
    B77 : 01;
    B78 : 01;
    B79 : 01;
    B7A : 01;
    B7B : 01;
    B7C : 01;
    B7D : 01;
    B7E : 01;
    B7F : 01;
    B80 : 01;
    B81 : 01;
    B82 : 01;
    B83 : 01;
    B84 : 01;
    B85 : 01;
    B86 : 01;
    B87 : 01;
    B88 : 00;
    B89 : 00;
    B8A : 00;
    B8B : 00;
    B8C : 00;
    B8D : 01;
    B8E : 01;
    B8F : 01;
    B90 : 01;
    B91 : 01;
    B92 : 01;
    B93 : 01;
    B94 : 01;
    B95 : 01;
    B96 : 01;
    B97 : 01;
    B98 : 01;
    B99 : 01;
    B9A : 01;
    B9B : 01;
    B9C : 01;
    B9D : 00;
    B9E : 00;
    B9F : 00;
    BA0 : 00;
    BA1 : 00;
    BA2 : 01;
    BA3 : 01;
    BA4 : 01;
    BA5 : 01;
    BA6 : 01;
    BA7 : 01;
    BA8 : 01;
    BA9 : 01;
    BAA : 00;
    BAB : 00;
    BAC : 01;
    BAD : 01;
    BAE : 01;
    BAF : 01;
    BB0 : 01;
    BB1 : 01;
    BB2 : 01;
    BB3 : 01;
    BB4 : 01;
    BB5 : 00;
    BB6 : 00;
    BB7 : 01;
    BB8 : 01;
    BB9 : 01;
    BBA : 01;
    BBB : 01;
    BBC : 01;
    BBD : 01;
    BBE : 01;
    BBF : 01;
    BC0 : 01;
    BC1 : 01;
    BC2 : 01;
    BC3 : 01;
    BC4 : 01;
    BC5 : 01;
    BC6 : 01;
    BC7 : 01;
    BC8 : 01;
    BC9 : 01;
    BCA : 00;
    BCB : 00;
    BCC : 01;
    BCD : 01;
    BCE : 01;
    BCF : 01;
    BD0 : 01;
    BD1 : 01;
    BD2 : 01;
    BD3 : 01;
    BD4 : 01;
    BD5 : 00;
    BD6 : 00;
    BD7 : 00;
    BD8 : 00;
    BD9 : 01;
    BDA : 01;
    BDB : 01;
    BDC : 01;
    BDD : 01;
    BDE : 01;
    BDF : 01;
    BE0 : 01;
    BE1 : 01;
    BE2 : 01;
    BE3 : 01;
    BE4 : 01;
    BE5 : 01;
    BE6 : 01;
    BE7 : 01;
    BE8 : 00;
    BE9 : 00;
    BEA : 00;
    BEB : 00;
    BEC : 01;
    BED : 01;
    BEE : 01;
    BEF : 01;
    BF0 : 01;
    BF1 : 01;
    BF2 : 01;
    BF3 : 01;
    BF4 : 01;
    BF5 : 01;
    BF6 : 01;
    BF7 : 01;
    BF8 : 01;
    BF9 : 01;
    BFA : 01;
    BFB : 01;
    BFC : 01;
    BFD : 00;
    BFE : 00;
    BFF : 10;
    C00 : 00;
    C01 : 00;
    C02 : 01;
    C03 : 01;
    C04 : 01;
    C05 : 01;
    C06 : 01;
    C07 : 01;
    C08 : 01;
    C09 : 01;
    C0A : 01;
    C0B : 01;
    C0C : 01;
    C0D : 01;
    C0E : 01;
    C0F : 01;
    C10 : 01;
    C11 : 01;
    C12 : 01;
    C13 : 01;
    C14 : 01;
    C15 : 00;
    C16 : 00;
    C17 : 01;
    C18 : 01;
    C19 : 01;
    C1A : 01;
    C1B : 01;
    C1C : 01;
    C1D : 01;
    C1E : 01;
    C1F : 01;
    C20 : 00;
    C21 : 00;
    C22 : 00;
    C23 : 00;
    C24 : 01;
    C25 : 01;
    C26 : 01;
    C27 : 01;
    C28 : 01;
    C29 : 01;
    C2A : 01;
    C2B : 01;
    C2C : 01;
    C2D : 01;
    C2E : 01;
    C2F : 01;
    C30 : 01;
    C31 : 01;
    C32 : 01;
    C33 : 01;
    C34 : 01;
    C35 : 00;
    C36 : 00;
    C37 : 01;
    C38 : 01;
    C39 : 01;
    C3A : 01;
    C3B : 01;
    C3C : 01;
    C3D : 01;
    C3E : 01;
    C3F : 01;
    C40 : 01;
    C41 : 01;
    C42 : 01;
    C43 : 01;
    C44 : 01;
    C45 : 01;
    C46 : 01;
    C47 : 01;
    C48 : 00;
    C49 : 00;
    C4A : 00;
    C4B : 00;
    C4C : 00;
    C4D : 01;
    C4E : 01;
    C4F : 01;
    C50 : 01;
    C51 : 01;
    C52 : 01;
    C53 : 01;
    C54 : 01;
    C55 : 01;
    C56 : 01;
    C57 : 01;
    C58 : 01;
    C59 : 01;
    C5A : 01;
    C5B : 01;
    C5C : 01;
    C5D : 00;
    C5E : 00;
    C5F : 00;
    C60 : 00;
    C61 : 00;
    C62 : 01;
    C63 : 01;
    C64 : 01;
    C65 : 01;
    C66 : 01;
    C67 : 01;
    C68 : 01;
    C69 : 01;
    C6A : 00;
    C6B : 00;
    C6C : 01;
    C6D : 01;
    C6E : 01;
    C6F : 01;
    C70 : 01;
    C71 : 01;
    C72 : 01;
    C73 : 01;
    C74 : 01;
    C75 : 00;
    C76 : 00;
    C77 : 01;
    C78 : 01;
    C79 : 01;
    C7A : 01;
    C7B : 01;
    C7C : 01;
    C7D : 01;
    C7E : 01;
    C7F : 01;
    C80 : 01;
    C81 : 01;
    C82 : 01;
    C83 : 01;
    C84 : 01;
    C85 : 01;
    C86 : 01;
    C87 : 01;
    C88 : 01;
    C89 : 01;
    C8A : 00;
    C8B : 00;
    C8C : 01;
    C8D : 01;
    C8E : 01;
    C8F : 01;
    C90 : 01;
    C91 : 01;
    C92 : 01;
    C93 : 01;
    C94 : 01;
    C95 : 00;
    C96 : 00;
    C97 : 00;
    C98 : 00;
    C99 : 01;
    C9A : 01;
    C9B : 01;
    C9C : 01;
    C9D : 01;
    C9E : 01;
    C9F : 01;
    CA0 : 01;
    CA1 : 01;
    CA2 : 01;
    CA3 : 01;
    CA4 : 01;
    CA5 : 01;
    CA6 : 01;
    CA7 : 01;
    CA8 : 00;
    CA9 : 00;
    CAA : 00;
    CAB : 00;
    CAC : 01;
    CAD : 01;
    CAE : 01;
    CAF : 01;
    CB0 : 01;
    CB1 : 01;
    CB2 : 01;
    CB3 : 01;
    CB4 : 01;
    CB5 : 01;
    CB6 : 01;
    CB7 : 01;
    CB8 : 01;
    CB9 : 01;
    CBA : 01;
    CBB : 01;
    CBC : 01;
    CBD : 00;
    CBE : 00;
    CBF : 10;
    CC0 : 00;
    CC1 : 00;
    CC2 : 01;
    CC3 : 01;
    CC4 : 01;
    CC5 : 01;
    CC6 : 01;
    CC7 : 01;
    CC8 : 01;
    CC9 : 01;
    CCA : 01;
    CCB : 01;
    CCC : 01;
    CCD : 01;
    CCE : 01;
    CCF : 01;
    CD0 : 01;
    CD1 : 01;
    CD2 : 01;
    CD3 : 01;
    CD4 : 01;
    CD5 : 00;
    CD6 : 00;
    CD7 : 01;
    CD8 : 01;
    CD9 : 01;
    CDA : 01;
    CDB : 01;
    CDC : 01;
    CDD : 01;
    CDE : 01;
    CDF : 01;
    CE0 : 00;
    CE1 : 00;
    CE2 : 01;
    CE3 : 01;
    CE4 : 01;
    CE5 : 01;
    CE6 : 01;
    CE7 : 01;
    CE8 : 01;
    CE9 : 01;
    CEA : 01;
    CEB : 01;
    CEC : 01;
    CED : 01;
    CEE : 01;
    CEF : 01;
    CF0 : 01;
    CF1 : 01;
    CF2 : 01;
    CF3 : 01;
    CF4 : 01;
    CF5 : 00;
    CF6 : 00;
    CF7 : 01;
    CF8 : 01;
    CF9 : 01;
    CFA : 01;
    CFB : 01;
    CFC : 01;
    CFD : 01;
    CFE : 01;
    CFF : 01;
    D00 : 01;
    D01 : 01;
    D02 : 01;
    D03 : 01;
    D04 : 01;
    D05 : 01;
    D06 : 01;
    D07 : 01;
    D08 : 01;
    D09 : 01;
    D0A : 01;
    D0B : 00;
    D0C : 00;
    D0D : 01;
    D0E : 01;
    D0F : 01;
    D10 : 01;
    D11 : 01;
    D12 : 01;
    D13 : 01;
    D14 : 01;
    D15 : 01;
    D16 : 01;
    D17 : 01;
    D18 : 01;
    D19 : 01;
    D1A : 01;
    D1B : 01;
    D1C : 01;
    D1D : 01;
    D1E : 01;
    D1F : 01;
    D20 : 00;
    D21 : 00;
    D22 : 01;
    D23 : 01;
    D24 : 01;
    D25 : 01;
    D26 : 01;
    D27 : 01;
    D28 : 01;
    D29 : 01;
    D2A : 00;
    D2B : 00;
    D2C : 01;
    D2D : 01;
    D2E : 01;
    D2F : 01;
    D30 : 01;
    D31 : 01;
    D32 : 01;
    D33 : 01;
    D34 : 01;
    D35 : 00;
    D36 : 00;
    D37 : 01;
    D38 : 01;
    D39 : 01;
    D3A : 01;
    D3B : 01;
    D3C : 01;
    D3D : 01;
    D3E : 01;
    D3F : 01;
    D40 : 01;
    D41 : 01;
    D42 : 01;
    D43 : 01;
    D44 : 01;
    D45 : 01;
    D46 : 01;
    D47 : 01;
    D48 : 01;
    D49 : 01;
    D4A : 00;
    D4B : 00;
    D4C : 01;
    D4D : 01;
    D4E : 01;
    D4F : 01;
    D50 : 01;
    D51 : 01;
    D52 : 01;
    D53 : 01;
    D54 : 01;
    D55 : 00;
    D56 : 00;
    D57 : 01;
    D58 : 01;
    D59 : 01;
    D5A : 01;
    D5B : 01;
    D5C : 01;
    D5D : 01;
    D5E : 01;
    D5F : 01;
    D60 : 01;
    D61 : 01;
    D62 : 01;
    D63 : 01;
    D64 : 01;
    D65 : 01;
    D66 : 01;
    D67 : 01;
    D68 : 00;
    D69 : 00;
    D6A : 01;
    D6B : 01;
    D6C : 01;
    D6D : 01;
    D6E : 01;
    D6F : 01;
    D70 : 01;
    D71 : 01;
    D72 : 01;
    D73 : 01;
    D74 : 01;
    D75 : 01;
    D76 : 01;
    D77 : 01;
    D78 : 01;
    D79 : 01;
    D7A : 01;
    D7B : 01;
    D7C : 01;
    D7D : 00;
    D7E : 00;
    D7F : 10;
    D80 : 00;
    D81 : 00;
    D82 : 01;
    D83 : 01;
    D84 : 01;
    D85 : 01;
    D86 : 01;
    D87 : 01;
    D88 : 01;
    D89 : 01;
    D8A : 01;
    D8B : 01;
    D8C : 01;
    D8D : 01;
    D8E : 01;
    D8F : 01;
    D90 : 01;
    D91 : 01;
    D92 : 01;
    D93 : 01;
    D94 : 01;
    D95 : 00;
    D96 : 00;
    D97 : 01;
    D98 : 01;
    D99 : 01;
    D9A : 01;
    D9B : 01;
    D9C : 01;
    D9D : 01;
    D9E : 01;
    D9F : 01;
    DA0 : 00;
    DA1 : 00;
    DA2 : 01;
    DA3 : 01;
    DA4 : 01;
    DA5 : 01;
    DA6 : 01;
    DA7 : 01;
    DA8 : 01;
    DA9 : 01;
    DAA : 01;
    DAB : 01;
    DAC : 01;
    DAD : 01;
    DAE : 01;
    DAF : 01;
    DB0 : 01;
    DB1 : 01;
    DB2 : 01;
    DB3 : 01;
    DB4 : 01;
    DB5 : 00;
    DB6 : 00;
    DB7 : 01;
    DB8 : 01;
    DB9 : 01;
    DBA : 01;
    DBB : 01;
    DBC : 01;
    DBD : 01;
    DBE : 01;
    DBF : 01;
    DC0 : 01;
    DC1 : 01;
    DC2 : 01;
    DC3 : 01;
    DC4 : 01;
    DC5 : 01;
    DC6 : 01;
    DC7 : 01;
    DC8 : 01;
    DC9 : 01;
    DCA : 01;
    DCB : 00;
    DCC : 00;
    DCD : 01;
    DCE : 01;
    DCF : 01;
    DD0 : 01;
    DD1 : 01;
    DD2 : 01;
    DD3 : 01;
    DD4 : 01;
    DD5 : 01;
    DD6 : 01;
    DD7 : 01;
    DD8 : 01;
    DD9 : 01;
    DDA : 01;
    DDB : 01;
    DDC : 01;
    DDD : 01;
    DDE : 01;
    DDF : 01;
    DE0 : 00;
    DE1 : 00;
    DE2 : 01;
    DE3 : 01;
    DE4 : 01;
    DE5 : 01;
    DE6 : 01;
    DE7 : 01;
    DE8 : 01;
    DE9 : 01;
    DEA : 00;
    DEB : 00;
    DEC : 01;
    DED : 01;
    DEE : 01;
    DEF : 01;
    DF0 : 01;
    DF1 : 01;
    DF2 : 01;
    DF3 : 01;
    DF4 : 01;
    DF5 : 00;
    DF6 : 00;
    DF7 : 01;
    DF8 : 01;
    DF9 : 01;
    DFA : 01;
    DFB : 01;
    DFC : 01;
    DFD : 01;
    DFE : 01;
    DFF : 01;
    E00 : 01;
    E01 : 01;
    E02 : 01;
    E03 : 01;
    E04 : 01;
    E05 : 01;
    E06 : 01;
    E07 : 01;
    E08 : 01;
    E09 : 01;
    E0A : 00;
    E0B : 00;
    E0C : 01;
    E0D : 01;
    E0E : 01;
    E0F : 01;
    E10 : 01;
    E11 : 01;
    E12 : 01;
    E13 : 01;
    E14 : 01;
    E15 : 00;
    E16 : 00;
    E17 : 01;
    E18 : 01;
    E19 : 01;
    E1A : 01;
    E1B : 01;
    E1C : 01;
    E1D : 01;
    E1E : 01;
    E1F : 01;
    E20 : 01;
    E21 : 01;
    E22 : 01;
    E23 : 01;
    E24 : 01;
    E25 : 01;
    E26 : 01;
    E27 : 01;
    E28 : 00;
    E29 : 00;
    E2A : 01;
    E2B : 01;
    E2C : 01;
    E2D : 01;
    E2E : 01;
    E2F : 01;
    E30 : 01;
    E31 : 01;
    E32 : 01;
    E33 : 01;
    E34 : 01;
    E35 : 01;
    E36 : 01;
    E37 : 01;
    E38 : 01;
    E39 : 01;
    E3A : 01;
    E3B : 01;
    E3C : 01;
    E3D : 00;
    E3E : 00;
    E3F : 10;
    E40 : 00;
    E41 : 00;
    E42 : 01;
    E43 : 01;
    E44 : 01;
    E45 : 01;
    E46 : 01;
    E47 : 01;
    E48 : 01;
    E49 : 01;
    E4A : 01;
    E4B : 01;
    E4C : 01;
    E4D : 01;
    E4E : 01;
    E4F : 01;
    E50 : 01;
    E51 : 01;
    E52 : 01;
    E53 : 01;
    E54 : 01;
    E55 : 00;
    E56 : 00;
    E57 : 01;
    E58 : 01;
    E59 : 01;
    E5A : 01;
    E5B : 01;
    E5C : 01;
    E5D : 01;
    E5E : 01;
    E5F : 01;
    E60 : 00;
    E61 : 00;
    E62 : 01;
    E63 : 01;
    E64 : 01;
    E65 : 01;
    E66 : 01;
    E67 : 01;
    E68 : 01;
    E69 : 01;
    E6A : 01;
    E6B : 01;
    E6C : 01;
    E6D : 01;
    E6E : 01;
    E6F : 01;
    E70 : 01;
    E71 : 01;
    E72 : 01;
    E73 : 01;
    E74 : 01;
    E75 : 00;
    E76 : 00;
    E77 : 01;
    E78 : 01;
    E79 : 01;
    E7A : 01;
    E7B : 01;
    E7C : 01;
    E7D : 01;
    E7E : 01;
    E7F : 01;
    E80 : 01;
    E81 : 01;
    E82 : 01;
    E83 : 01;
    E84 : 01;
    E85 : 01;
    E86 : 01;
    E87 : 01;
    E88 : 01;
    E89 : 01;
    E8A : 01;
    E8B : 00;
    E8C : 00;
    E8D : 01;
    E8E : 01;
    E8F : 01;
    E90 : 01;
    E91 : 01;
    E92 : 01;
    E93 : 01;
    E94 : 01;
    E95 : 01;
    E96 : 01;
    E97 : 01;
    E98 : 01;
    E99 : 01;
    E9A : 01;
    E9B : 01;
    E9C : 01;
    E9D : 01;
    E9E : 01;
    E9F : 01;
    EA0 : 00;
    EA1 : 00;
    EA2 : 01;
    EA3 : 01;
    EA4 : 01;
    EA5 : 01;
    EA6 : 01;
    EA7 : 01;
    EA8 : 01;
    EA9 : 01;
    EAA : 00;
    EAB : 00;
    EAC : 01;
    EAD : 01;
    EAE : 01;
    EAF : 01;
    EB0 : 01;
    EB1 : 01;
    EB2 : 01;
    EB3 : 01;
    EB4 : 01;
    EB5 : 00;
    EB6 : 00;
    EB7 : 01;
    EB8 : 01;
    EB9 : 01;
    EBA : 01;
    EBB : 01;
    EBC : 01;
    EBD : 01;
    EBE : 01;
    EBF : 01;
    EC0 : 01;
    EC1 : 01;
    EC2 : 01;
    EC3 : 01;
    EC4 : 01;
    EC5 : 01;
    EC6 : 01;
    EC7 : 01;
    EC8 : 01;
    EC9 : 01;
    ECA : 00;
    ECB : 00;
    ECC : 00;
    ECD : 00;
    ECE : 00;
    ECF : 00;
    ED0 : 00;
    ED1 : 00;
    ED2 : 00;
    ED3 : 00;
    ED4 : 00;
    ED5 : 00;
    ED6 : 00;
    ED7 : 01;
    ED8 : 01;
    ED9 : 01;
    EDA : 01;
    EDB : 01;
    EDC : 01;
    EDD : 01;
    EDE : 01;
    EDF : 01;
    EE0 : 01;
    EE1 : 01;
    EE2 : 01;
    EE3 : 01;
    EE4 : 01;
    EE5 : 01;
    EE6 : 01;
    EE7 : 01;
    EE8 : 00;
    EE9 : 00;
    EEA : 01;
    EEB : 01;
    EEC : 01;
    EED : 01;
    EEE : 01;
    EEF : 01;
    EF0 : 01;
    EF1 : 01;
    EF2 : 01;
    EF3 : 01;
    EF4 : 01;
    EF5 : 01;
    EF6 : 01;
    EF7 : 01;
    EF8 : 01;
    EF9 : 01;
    EFA : 01;
    EFB : 01;
    EFC : 01;
    EFD : 00;
    EFE : 00;
    EFF : 10;
    F00 : 00;
    F01 : 00;
    F02 : 01;
    F03 : 01;
    F04 : 01;
    F05 : 01;
    F06 : 01;
    F07 : 01;
    F08 : 01;
    F09 : 01;
    F0A : 01;
    F0B : 01;
    F0C : 01;
    F0D : 01;
    F0E : 01;
    F0F : 01;
    F10 : 01;
    F11 : 01;
    F12 : 01;
    F13 : 01;
    F14 : 01;
    F15 : 00;
    F16 : 00;
    F17 : 01;
    F18 : 01;
    F19 : 01;
    F1A : 01;
    F1B : 01;
    F1C : 01;
    F1D : 01;
    F1E : 01;
    F1F : 01;
    F20 : 00;
    F21 : 00;
    F22 : 01;
    F23 : 01;
    F24 : 01;
    F25 : 01;
    F26 : 01;
    F27 : 01;
    F28 : 01;
    F29 : 01;
    F2A : 01;
    F2B : 01;
    F2C : 01;
    F2D : 01;
    F2E : 01;
    F2F : 01;
    F30 : 01;
    F31 : 01;
    F32 : 01;
    F33 : 01;
    F34 : 01;
    F35 : 00;
    F36 : 00;
    F37 : 01;
    F38 : 01;
    F39 : 01;
    F3A : 01;
    F3B : 01;
    F3C : 01;
    F3D : 01;
    F3E : 01;
    F3F : 01;
    F40 : 01;
    F41 : 01;
    F42 : 01;
    F43 : 01;
    F44 : 01;
    F45 : 01;
    F46 : 01;
    F47 : 01;
    F48 : 01;
    F49 : 01;
    F4A : 01;
    F4B : 00;
    F4C : 00;
    F4D : 01;
    F4E : 01;
    F4F : 01;
    F50 : 01;
    F51 : 01;
    F52 : 01;
    F53 : 01;
    F54 : 01;
    F55 : 01;
    F56 : 01;
    F57 : 01;
    F58 : 01;
    F59 : 01;
    F5A : 01;
    F5B : 01;
    F5C : 01;
    F5D : 01;
    F5E : 01;
    F5F : 01;
    F60 : 00;
    F61 : 00;
    F62 : 01;
    F63 : 01;
    F64 : 01;
    F65 : 01;
    F66 : 01;
    F67 : 01;
    F68 : 01;
    F69 : 01;
    F6A : 00;
    F6B : 00;
    F6C : 01;
    F6D : 01;
    F6E : 01;
    F6F : 01;
    F70 : 01;
    F71 : 01;
    F72 : 01;
    F73 : 01;
    F74 : 01;
    F75 : 00;
    F76 : 00;
    F77 : 01;
    F78 : 01;
    F79 : 01;
    F7A : 01;
    F7B : 01;
    F7C : 01;
    F7D : 01;
    F7E : 01;
    F7F : 01;
    F80 : 01;
    F81 : 01;
    F82 : 01;
    F83 : 01;
    F84 : 01;
    F85 : 01;
    F86 : 01;
    F87 : 01;
    F88 : 01;
    F89 : 01;
    F8A : 00;
    F8B : 00;
    F8C : 00;
    F8D : 00;
    F8E : 00;
    F8F : 00;
    F90 : 00;
    F91 : 00;
    F92 : 00;
    F93 : 00;
    F94 : 00;
    F95 : 00;
    F96 : 00;
    F97 : 01;
    F98 : 01;
    F99 : 01;
    F9A : 01;
    F9B : 01;
    F9C : 01;
    F9D : 01;
    F9E : 01;
    F9F : 01;
    FA0 : 01;
    FA1 : 01;
    FA2 : 01;
    FA3 : 01;
    FA4 : 01;
    FA5 : 01;
    FA6 : 01;
    FA7 : 01;
    FA8 : 00;
    FA9 : 00;
    FAA : 01;
    FAB : 01;
    FAC : 01;
    FAD : 01;
    FAE : 01;
    FAF : 01;
    FB0 : 01;
    FB1 : 01;
    FB2 : 01;
    FB3 : 01;
    FB4 : 01;
    FB5 : 01;
    FB6 : 01;
    FB7 : 01;
    FB8 : 01;
    FB9 : 01;
    FBA : 01;
    FBB : 01;
    FBC : 01;
    FBD : 00;
    FBE : 00;
    FBF : 10;
    FC0 : 00;
    FC1 : 00;
    FC2 : 01;
    FC3 : 01;
    FC4 : 01;
    FC5 : 01;
    FC6 : 01;
    FC7 : 01;
    FC8 : 01;
    FC9 : 01;
    FCA : 01;
    FCB : 01;
    FCC : 01;
    FCD : 01;
    FCE : 01;
    FCF : 01;
    FD0 : 01;
    FD1 : 01;
    FD2 : 01;
    FD3 : 01;
    FD4 : 01;
    FD5 : 00;
    FD6 : 00;
    FD7 : 01;
    FD8 : 01;
    FD9 : 01;
    FDA : 01;
    FDB : 01;
    FDC : 01;
    FDD : 01;
    FDE : 01;
    FDF : 01;
    FE0 : 00;
    FE1 : 00;
    FE2 : 01;
    FE3 : 01;
    FE4 : 01;
    FE5 : 01;
    FE6 : 01;
    FE7 : 01;
    FE8 : 01;
    FE9 : 01;
    FEA : 01;
    FEB : 00;
    FEC : 00;
    FED : 01;
    FEE : 01;
    FEF : 01;
    FF0 : 01;
    FF1 : 01;
    FF2 : 01;
    FF3 : 01;
    FF4 : 01;
    FF5 : 00;
    FF6 : 00;
    FF7 : 01;
    FF8 : 01;
    FF9 : 01;
    FFA : 01;
    FFB : 01;
    FFC : 01;
    FFD : 01;
    FFE : 01;
    FFF : 01;
    1000 : 00;
    1001 : 00;
    1002 : 01;
    1003 : 01;
    1004 : 01;
    1005 : 01;
    1006 : 01;
    1007 : 01;
    1008 : 01;
    1009 : 01;
    100A : 01;
    100B : 00;
    100C : 00;
    100D : 01;
    100E : 01;
    100F : 01;
    1010 : 01;
    1011 : 01;
    1012 : 01;
    1013 : 01;
    1014 : 01;
    1015 : 00;
    1016 : 00;
    1017 : 01;
    1018 : 01;
    1019 : 01;
    101A : 01;
    101B : 01;
    101C : 01;
    101D : 01;
    101E : 01;
    101F : 01;
    1020 : 00;
    1021 : 00;
    1022 : 01;
    1023 : 01;
    1024 : 01;
    1025 : 01;
    1026 : 01;
    1027 : 01;
    1028 : 01;
    1029 : 01;
    102A : 00;
    102B : 00;
    102C : 01;
    102D : 01;
    102E : 01;
    102F : 01;
    1030 : 01;
    1031 : 01;
    1032 : 01;
    1033 : 01;
    1034 : 01;
    1035 : 00;
    1036 : 00;
    1037 : 01;
    1038 : 01;
    1039 : 01;
    103A : 01;
    103B : 01;
    103C : 01;
    103D : 01;
    103E : 01;
    103F : 01;
    1040 : 01;
    1041 : 01;
    1042 : 01;
    1043 : 01;
    1044 : 01;
    1045 : 01;
    1046 : 01;
    1047 : 01;
    1048 : 01;
    1049 : 01;
    104A : 00;
    104B : 00;
    104C : 01;
    104D : 01;
    104E : 01;
    104F : 01;
    1050 : 01;
    1051 : 01;
    1052 : 01;
    1053 : 01;
    1054 : 01;
    1055 : 00;
    1056 : 00;
    1057 : 01;
    1058 : 01;
    1059 : 01;
    105A : 01;
    105B : 01;
    105C : 01;
    105D : 01;
    105E : 01;
    105F : 01;
    1060 : 01;
    1061 : 00;
    1062 : 00;
    1063 : 00;
    1064 : 00;
    1065 : 00;
    1066 : 00;
    1067 : 00;
    1068 : 00;
    1069 : 00;
    106A : 01;
    106B : 01;
    106C : 01;
    106D : 01;
    106E : 01;
    106F : 01;
    1070 : 01;
    1071 : 01;
    1072 : 01;
    1073 : 00;
    1074 : 00;
    1075 : 01;
    1076 : 01;
    1077 : 01;
    1078 : 01;
    1079 : 01;
    107A : 01;
    107B : 01;
    107C : 01;
    107D : 00;
    107E : 00;
    107F : 10;
    1080 : 00;
    1081 : 00;
    1082 : 01;
    1083 : 01;
    1084 : 01;
    1085 : 01;
    1086 : 01;
    1087 : 01;
    1088 : 01;
    1089 : 01;
    108A : 01;
    108B : 01;
    108C : 01;
    108D : 01;
    108E : 01;
    108F : 01;
    1090 : 01;
    1091 : 01;
    1092 : 01;
    1093 : 01;
    1094 : 01;
    1095 : 00;
    1096 : 00;
    1097 : 01;
    1098 : 01;
    1099 : 01;
    109A : 01;
    109B : 01;
    109C : 01;
    109D : 01;
    109E : 01;
    109F : 01;
    10A0 : 00;
    10A1 : 00;
    10A2 : 01;
    10A3 : 01;
    10A4 : 01;
    10A5 : 01;
    10A6 : 01;
    10A7 : 01;
    10A8 : 01;
    10A9 : 01;
    10AA : 01;
    10AB : 00;
    10AC : 00;
    10AD : 01;
    10AE : 01;
    10AF : 01;
    10B0 : 01;
    10B1 : 01;
    10B2 : 01;
    10B3 : 01;
    10B4 : 01;
    10B5 : 00;
    10B6 : 00;
    10B7 : 01;
    10B8 : 01;
    10B9 : 01;
    10BA : 01;
    10BB : 01;
    10BC : 01;
    10BD : 01;
    10BE : 01;
    10BF : 01;
    10C0 : 00;
    10C1 : 00;
    10C2 : 01;
    10C3 : 01;
    10C4 : 01;
    10C5 : 01;
    10C6 : 01;
    10C7 : 01;
    10C8 : 01;
    10C9 : 01;
    10CA : 01;
    10CB : 00;
    10CC : 00;
    10CD : 01;
    10CE : 01;
    10CF : 01;
    10D0 : 01;
    10D1 : 01;
    10D2 : 01;
    10D3 : 01;
    10D4 : 01;
    10D5 : 00;
    10D6 : 00;
    10D7 : 01;
    10D8 : 01;
    10D9 : 01;
    10DA : 01;
    10DB : 01;
    10DC : 01;
    10DD : 01;
    10DE : 01;
    10DF : 01;
    10E0 : 00;
    10E1 : 00;
    10E2 : 01;
    10E3 : 01;
    10E4 : 01;
    10E5 : 01;
    10E6 : 01;
    10E7 : 01;
    10E8 : 01;
    10E9 : 01;
    10EA : 00;
    10EB : 00;
    10EC : 01;
    10ED : 01;
    10EE : 01;
    10EF : 01;
    10F0 : 01;
    10F1 : 01;
    10F2 : 01;
    10F3 : 01;
    10F4 : 01;
    10F5 : 00;
    10F6 : 00;
    10F7 : 01;
    10F8 : 01;
    10F9 : 01;
    10FA : 01;
    10FB : 01;
    10FC : 01;
    10FD : 01;
    10FE : 01;
    10FF : 01;
    1100 : 01;
    1101 : 01;
    1102 : 01;
    1103 : 01;
    1104 : 01;
    1105 : 01;
    1106 : 01;
    1107 : 01;
    1108 : 01;
    1109 : 01;
    110A : 00;
    110B : 00;
    110C : 01;
    110D : 01;
    110E : 01;
    110F : 01;
    1110 : 01;
    1111 : 01;
    1112 : 01;
    1113 : 01;
    1114 : 01;
    1115 : 00;
    1116 : 00;
    1117 : 01;
    1118 : 01;
    1119 : 01;
    111A : 01;
    111B : 01;
    111C : 01;
    111D : 01;
    111E : 01;
    111F : 01;
    1120 : 01;
    1121 : 00;
    1122 : 00;
    1123 : 00;
    1124 : 00;
    1125 : 00;
    1126 : 00;
    1127 : 00;
    1128 : 00;
    1129 : 00;
    112A : 01;
    112B : 01;
    112C : 01;
    112D : 01;
    112E : 01;
    112F : 01;
    1130 : 01;
    1131 : 01;
    1132 : 01;
    1133 : 00;
    1134 : 00;
    1135 : 01;
    1136 : 01;
    1137 : 01;
    1138 : 01;
    1139 : 01;
    113A : 01;
    113B : 01;
    113C : 01;
    113D : 00;
    113E : 00;
    113F : 10;
    1140 : 00;
    1141 : 00;
    1142 : 01;
    1143 : 01;
    1144 : 01;
    1145 : 01;
    1146 : 01;
    1147 : 01;
    1148 : 01;
    1149 : 01;
    114A : 01;
    114B : 00;
    114C : 00;
    114D : 00;
    114E : 00;
    114F : 00;
    1150 : 00;
    1151 : 00;
    1152 : 00;
    1153 : 00;
    1154 : 00;
    1155 : 00;
    1156 : 00;
    1157 : 01;
    1158 : 01;
    1159 : 01;
    115A : 01;
    115B : 01;
    115C : 01;
    115D : 01;
    115E : 01;
    115F : 01;
    1160 : 00;
    1161 : 00;
    1162 : 01;
    1163 : 01;
    1164 : 01;
    1165 : 01;
    1166 : 01;
    1167 : 01;
    1168 : 01;
    1169 : 01;
    116A : 01;
    116B : 00;
    116C : 00;
    116D : 01;
    116E : 01;
    116F : 01;
    1170 : 01;
    1171 : 01;
    1172 : 01;
    1173 : 01;
    1174 : 01;
    1175 : 00;
    1176 : 00;
    1177 : 01;
    1178 : 01;
    1179 : 01;
    117A : 01;
    117B : 01;
    117C : 01;
    117D : 01;
    117E : 01;
    117F : 01;
    1180 : 00;
    1181 : 00;
    1182 : 01;
    1183 : 01;
    1184 : 01;
    1185 : 01;
    1186 : 01;
    1187 : 01;
    1188 : 01;
    1189 : 01;
    118A : 01;
    118B : 00;
    118C : 00;
    118D : 01;
    118E : 01;
    118F : 01;
    1190 : 01;
    1191 : 01;
    1192 : 01;
    1193 : 01;
    1194 : 01;
    1195 : 00;
    1196 : 00;
    1197 : 01;
    1198 : 01;
    1199 : 01;
    119A : 01;
    119B : 01;
    119C : 01;
    119D : 01;
    119E : 01;
    119F : 01;
    11A0 : 00;
    11A1 : 00;
    11A2 : 01;
    11A3 : 01;
    11A4 : 01;
    11A5 : 01;
    11A6 : 01;
    11A7 : 01;
    11A8 : 01;
    11A9 : 01;
    11AA : 00;
    11AB : 00;
    11AC : 01;
    11AD : 01;
    11AE : 01;
    11AF : 01;
    11B0 : 01;
    11B1 : 01;
    11B2 : 01;
    11B3 : 01;
    11B4 : 01;
    11B5 : 00;
    11B6 : 00;
    11B7 : 01;
    11B8 : 01;
    11B9 : 01;
    11BA : 01;
    11BB : 01;
    11BC : 01;
    11BD : 01;
    11BE : 01;
    11BF : 01;
    11C0 : 01;
    11C1 : 01;
    11C2 : 01;
    11C3 : 01;
    11C4 : 01;
    11C5 : 01;
    11C6 : 01;
    11C7 : 01;
    11C8 : 01;
    11C9 : 01;
    11CA : 00;
    11CB : 00;
    11CC : 01;
    11CD : 01;
    11CE : 01;
    11CF : 01;
    11D0 : 01;
    11D1 : 01;
    11D2 : 01;
    11D3 : 01;
    11D4 : 01;
    11D5 : 00;
    11D6 : 00;
    11D7 : 01;
    11D8 : 01;
    11D9 : 01;
    11DA : 01;
    11DB : 01;
    11DC : 01;
    11DD : 01;
    11DE : 01;
    11DF : 00;
    11E0 : 00;
    11E1 : 00;
    11E2 : 00;
    11E3 : 00;
    11E4 : 00;
    11E5 : 00;
    11E6 : 00;
    11E7 : 00;
    11E8 : 00;
    11E9 : 00;
    11EA : 01;
    11EB : 01;
    11EC : 01;
    11ED : 01;
    11EE : 01;
    11EF : 01;
    11F0 : 01;
    11F1 : 01;
    11F2 : 01;
    11F3 : 00;
    11F4 : 00;
    11F5 : 01;
    11F6 : 01;
    11F7 : 01;
    11F8 : 01;
    11F9 : 01;
    11FA : 01;
    11FB : 01;
    11FC : 01;
    11FD : 00;
    11FE : 00;
    11FF : 10;
    1200 : 00;
    1201 : 00;
    1202 : 01;
    1203 : 01;
    1204 : 01;
    1205 : 01;
    1206 : 01;
    1207 : 01;
    1208 : 01;
    1209 : 01;
    120A : 01;
    120B : 00;
    120C : 00;
    120D : 00;
    120E : 00;
    120F : 00;
    1210 : 00;
    1211 : 00;
    1212 : 00;
    1213 : 00;
    1214 : 00;
    1215 : 00;
    1216 : 00;
    1217 : 01;
    1218 : 01;
    1219 : 01;
    121A : 01;
    121B : 01;
    121C : 01;
    121D : 01;
    121E : 01;
    121F : 01;
    1220 : 00;
    1221 : 00;
    1222 : 01;
    1223 : 01;
    1224 : 01;
    1225 : 01;
    1226 : 01;
    1227 : 01;
    1228 : 01;
    1229 : 01;
    122A : 01;
    122B : 00;
    122C : 00;
    122D : 01;
    122E : 01;
    122F : 01;
    1230 : 01;
    1231 : 01;
    1232 : 01;
    1233 : 01;
    1234 : 01;
    1235 : 00;
    1236 : 00;
    1237 : 01;
    1238 : 01;
    1239 : 01;
    123A : 01;
    123B : 01;
    123C : 01;
    123D : 01;
    123E : 01;
    123F : 01;
    1240 : 00;
    1241 : 00;
    1242 : 01;
    1243 : 01;
    1244 : 01;
    1245 : 01;
    1246 : 01;
    1247 : 01;
    1248 : 01;
    1249 : 01;
    124A : 01;
    124B : 00;
    124C : 00;
    124D : 01;
    124E : 01;
    124F : 01;
    1250 : 01;
    1251 : 01;
    1252 : 01;
    1253 : 01;
    1254 : 01;
    1255 : 00;
    1256 : 00;
    1257 : 01;
    1258 : 01;
    1259 : 01;
    125A : 01;
    125B : 01;
    125C : 01;
    125D : 01;
    125E : 01;
    125F : 01;
    1260 : 00;
    1261 : 00;
    1262 : 01;
    1263 : 01;
    1264 : 01;
    1265 : 01;
    1266 : 01;
    1267 : 01;
    1268 : 01;
    1269 : 01;
    126A : 00;
    126B : 00;
    126C : 01;
    126D : 01;
    126E : 01;
    126F : 01;
    1270 : 01;
    1271 : 01;
    1272 : 01;
    1273 : 01;
    1274 : 01;
    1275 : 00;
    1276 : 00;
    1277 : 01;
    1278 : 01;
    1279 : 01;
    127A : 01;
    127B : 01;
    127C : 01;
    127D : 01;
    127E : 01;
    127F : 01;
    1280 : 01;
    1281 : 01;
    1282 : 01;
    1283 : 01;
    1284 : 01;
    1285 : 01;
    1286 : 01;
    1287 : 01;
    1288 : 01;
    1289 : 01;
    128A : 00;
    128B : 00;
    128C : 01;
    128D : 01;
    128E : 01;
    128F : 01;
    1290 : 01;
    1291 : 01;
    1292 : 01;
    1293 : 01;
    1294 : 01;
    1295 : 00;
    1296 : 00;
    1297 : 01;
    1298 : 01;
    1299 : 01;
    129A : 01;
    129B : 01;
    129C : 01;
    129D : 01;
    129E : 01;
    129F : 00;
    12A0 : 00;
    12A1 : 00;
    12A2 : 00;
    12A3 : 00;
    12A4 : 00;
    12A5 : 00;
    12A6 : 00;
    12A7 : 00;
    12A8 : 00;
    12A9 : 00;
    12AA : 01;
    12AB : 01;
    12AC : 01;
    12AD : 01;
    12AE : 01;
    12AF : 01;
    12B0 : 01;
    12B1 : 01;
    12B2 : 01;
    12B3 : 00;
    12B4 : 00;
    12B5 : 01;
    12B6 : 01;
    12B7 : 01;
    12B8 : 01;
    12B9 : 01;
    12BA : 01;
    12BB : 01;
    12BC : 01;
    12BD : 00;
    12BE : 00;
    12BF : 10;
    12C0 : 00;
    12C1 : 00;
    12C2 : 01;
    12C3 : 01;
    12C4 : 01;
    12C5 : 01;
    12C6 : 01;
    12C7 : 01;
    12C8 : 01;
    12C9 : 01;
    12CA : 01;
    12CB : 00;
    12CC : 00;
    12CD : 00;
    12CE : 00;
    12CF : 00;
    12D0 : 00;
    12D1 : 00;
    12D2 : 00;
    12D3 : 00;
    12D4 : 00;
    12D5 : 00;
    12D6 : 00;
    12D7 : 01;
    12D8 : 01;
    12D9 : 01;
    12DA : 01;
    12DB : 01;
    12DC : 01;
    12DD : 01;
    12DE : 01;
    12DF : 01;
    12E0 : 00;
    12E1 : 00;
    12E2 : 01;
    12E3 : 01;
    12E4 : 01;
    12E5 : 01;
    12E6 : 01;
    12E7 : 01;
    12E8 : 01;
    12E9 : 01;
    12EA : 01;
    12EB : 00;
    12EC : 00;
    12ED : 01;
    12EE : 01;
    12EF : 01;
    12F0 : 01;
    12F1 : 01;
    12F2 : 01;
    12F3 : 01;
    12F4 : 01;
    12F5 : 00;
    12F6 : 00;
    12F7 : 01;
    12F8 : 01;
    12F9 : 01;
    12FA : 01;
    12FB : 01;
    12FC : 01;
    12FD : 01;
    12FE : 01;
    12FF : 01;
    1300 : 00;
    1301 : 00;
    1302 : 01;
    1303 : 01;
    1304 : 01;
    1305 : 01;
    1306 : 01;
    1307 : 01;
    1308 : 01;
    1309 : 01;
    130A : 01;
    130B : 00;
    130C : 00;
    130D : 01;
    130E : 01;
    130F : 01;
    1310 : 01;
    1311 : 01;
    1312 : 01;
    1313 : 01;
    1314 : 01;
    1315 : 00;
    1316 : 00;
    1317 : 01;
    1318 : 01;
    1319 : 01;
    131A : 01;
    131B : 01;
    131C : 01;
    131D : 01;
    131E : 01;
    131F : 01;
    1320 : 00;
    1321 : 00;
    1322 : 01;
    1323 : 01;
    1324 : 01;
    1325 : 01;
    1326 : 01;
    1327 : 01;
    1328 : 01;
    1329 : 01;
    132A : 00;
    132B : 00;
    132C : 01;
    132D : 01;
    132E : 01;
    132F : 01;
    1330 : 01;
    1331 : 01;
    1332 : 01;
    1333 : 01;
    1334 : 01;
    1335 : 00;
    1336 : 00;
    1337 : 01;
    1338 : 01;
    1339 : 01;
    133A : 01;
    133B : 01;
    133C : 01;
    133D : 01;
    133E : 01;
    133F : 00;
    1340 : 00;
    1341 : 01;
    1342 : 01;
    1343 : 01;
    1344 : 01;
    1345 : 01;
    1346 : 01;
    1347 : 01;
    1348 : 01;
    1349 : 01;
    134A : 00;
    134B : 00;
    134C : 01;
    134D : 01;
    134E : 01;
    134F : 01;
    1350 : 01;
    1351 : 01;
    1352 : 01;
    1353 : 01;
    1354 : 01;
    1355 : 00;
    1356 : 00;
    1357 : 01;
    1358 : 01;
    1359 : 01;
    135A : 01;
    135B : 01;
    135C : 01;
    135D : 01;
    135E : 01;
    135F : 00;
    1360 : 00;
    1361 : 00;
    1362 : 00;
    1363 : 10;
    1364 : 10;
    1365 : 10;
    1366 : 10;
    1367 : 10;
    1368 : 00;
    1369 : 00;
    136A : 01;
    136B : 01;
    136C : 01;
    136D : 01;
    136E : 01;
    136F : 01;
    1370 : 01;
    1371 : 01;
    1372 : 01;
    1373 : 00;
    1374 : 00;
    1375 : 01;
    1376 : 01;
    1377 : 01;
    1378 : 01;
    1379 : 01;
    137A : 01;
    137B : 01;
    137C : 01;
    137D : 00;
    137E : 00;
    137F : 10;
    1380 : 00;
    1381 : 00;
    1382 : 01;
    1383 : 01;
    1384 : 01;
    1385 : 01;
    1386 : 01;
    1387 : 01;
    1388 : 01;
    1389 : 01;
    138A : 01;
    138B : 00;
    138C : 00;
    138D : 00;
    138E : 00;
    138F : 00;
    1390 : 00;
    1391 : 00;
    1392 : 00;
    1393 : 00;
    1394 : 00;
    1395 : 00;
    1396 : 00;
    1397 : 01;
    1398 : 01;
    1399 : 01;
    139A : 01;
    139B : 01;
    139C : 01;
    139D : 01;
    139E : 01;
    139F : 01;
    13A0 : 00;
    13A1 : 00;
    13A2 : 01;
    13A3 : 01;
    13A4 : 01;
    13A5 : 01;
    13A6 : 01;
    13A7 : 01;
    13A8 : 01;
    13A9 : 01;
    13AA : 01;
    13AB : 00;
    13AC : 00;
    13AD : 01;
    13AE : 01;
    13AF : 01;
    13B0 : 01;
    13B1 : 01;
    13B2 : 01;
    13B3 : 01;
    13B4 : 01;
    13B5 : 00;
    13B6 : 00;
    13B7 : 01;
    13B8 : 01;
    13B9 : 01;
    13BA : 01;
    13BB : 01;
    13BC : 01;
    13BD : 01;
    13BE : 01;
    13BF : 01;
    13C0 : 00;
    13C1 : 00;
    13C2 : 01;
    13C3 : 01;
    13C4 : 01;
    13C5 : 01;
    13C6 : 01;
    13C7 : 01;
    13C8 : 01;
    13C9 : 01;
    13CA : 01;
    13CB : 00;
    13CC : 00;
    13CD : 01;
    13CE : 01;
    13CF : 01;
    13D0 : 01;
    13D1 : 01;
    13D2 : 01;
    13D3 : 01;
    13D4 : 01;
    13D5 : 00;
    13D6 : 00;
    13D7 : 01;
    13D8 : 01;
    13D9 : 01;
    13DA : 01;
    13DB : 01;
    13DC : 01;
    13DD : 01;
    13DE : 01;
    13DF : 01;
    13E0 : 00;
    13E1 : 00;
    13E2 : 01;
    13E3 : 01;
    13E4 : 01;
    13E5 : 01;
    13E6 : 01;
    13E7 : 01;
    13E8 : 01;
    13E9 : 01;
    13EA : 01;
    13EB : 01;
    13EC : 01;
    13ED : 01;
    13EE : 01;
    13EF : 01;
    13F0 : 01;
    13F1 : 01;
    13F2 : 01;
    13F3 : 01;
    13F4 : 01;
    13F5 : 00;
    13F6 : 00;
    13F7 : 01;
    13F8 : 01;
    13F9 : 01;
    13FA : 01;
    13FB : 01;
    13FC : 01;
    13FD : 01;
    13FE : 01;
    13FF : 00;
    1400 : 00;
    1401 : 01;
    1402 : 01;
    1403 : 01;
    1404 : 01;
    1405 : 01;
    1406 : 01;
    1407 : 01;
    1408 : 01;
    1409 : 01;
    140A : 00;
    140B : 00;
    140C : 01;
    140D : 01;
    140E : 01;
    140F : 01;
    1410 : 01;
    1411 : 01;
    1412 : 01;
    1413 : 01;
    1414 : 01;
    1415 : 00;
    1416 : 00;
    1417 : 01;
    1418 : 01;
    1419 : 01;
    141A : 01;
    141B : 01;
    141C : 01;
    141D : 01;
    141E : 01;
    141F : 00;
    1420 : 00;
    1421 : 00;
    1422 : 00;
    1423 : 10;
    1424 : 10;
    1425 : 10;
    1426 : 10;
    1427 : 10;
    1428 : 00;
    1429 : 00;
    142A : 01;
    142B : 01;
    142C : 01;
    142D : 01;
    142E : 01;
    142F : 01;
    1430 : 01;
    1431 : 01;
    1432 : 01;
    1433 : 00;
    1434 : 00;
    1435 : 01;
    1436 : 01;
    1437 : 01;
    1438 : 01;
    1439 : 01;
    143A : 01;
    143B : 01;
    143C : 01;
    143D : 00;
    143E : 00;
    143F : 10;
    1440 : 00;
    1441 : 00;
    1442 : 01;
    1443 : 01;
    1444 : 01;
    1445 : 01;
    1446 : 01;
    1447 : 01;
    1448 : 01;
    1449 : 01;
    144A : 01;
    144B : 00;
    144C : 00;
    144D : 10;
    144E : 10;
    144F : 10;
    1450 : 10;
    1451 : 10;
    1452 : 10;
    1453 : 10;
    1454 : 10;
    1455 : 00;
    1456 : 00;
    1457 : 01;
    1458 : 01;
    1459 : 01;
    145A : 01;
    145B : 01;
    145C : 01;
    145D : 01;
    145E : 01;
    145F : 01;
    1460 : 00;
    1461 : 00;
    1462 : 01;
    1463 : 01;
    1464 : 01;
    1465 : 01;
    1466 : 01;
    1467 : 01;
    1468 : 01;
    1469 : 01;
    146A : 01;
    146B : 00;
    146C : 00;
    146D : 01;
    146E : 01;
    146F : 01;
    1470 : 01;
    1471 : 01;
    1472 : 01;
    1473 : 01;
    1474 : 01;
    1475 : 00;
    1476 : 00;
    1477 : 01;
    1478 : 01;
    1479 : 01;
    147A : 01;
    147B : 01;
    147C : 01;
    147D : 01;
    147E : 01;
    147F : 01;
    1480 : 00;
    1481 : 00;
    1482 : 01;
    1483 : 01;
    1484 : 01;
    1485 : 01;
    1486 : 01;
    1487 : 01;
    1488 : 01;
    1489 : 01;
    148A : 01;
    148B : 00;
    148C : 00;
    148D : 01;
    148E : 01;
    148F : 01;
    1490 : 01;
    1491 : 01;
    1492 : 01;
    1493 : 01;
    1494 : 01;
    1495 : 00;
    1496 : 00;
    1497 : 01;
    1498 : 01;
    1499 : 01;
    149A : 01;
    149B : 01;
    149C : 01;
    149D : 01;
    149E : 01;
    149F : 01;
    14A0 : 00;
    14A1 : 00;
    14A2 : 01;
    14A3 : 01;
    14A4 : 01;
    14A5 : 01;
    14A6 : 01;
    14A7 : 01;
    14A8 : 01;
    14A9 : 01;
    14AA : 01;
    14AB : 01;
    14AC : 01;
    14AD : 01;
    14AE : 01;
    14AF : 01;
    14B0 : 01;
    14B1 : 01;
    14B2 : 01;
    14B3 : 01;
    14B4 : 01;
    14B5 : 00;
    14B6 : 00;
    14B7 : 01;
    14B8 : 01;
    14B9 : 01;
    14BA : 01;
    14BB : 01;
    14BC : 01;
    14BD : 01;
    14BE : 01;
    14BF : 00;
    14C0 : 00;
    14C1 : 01;
    14C2 : 01;
    14C3 : 01;
    14C4 : 01;
    14C5 : 01;
    14C6 : 01;
    14C7 : 01;
    14C8 : 01;
    14C9 : 01;
    14CA : 00;
    14CB : 00;
    14CC : 01;
    14CD : 01;
    14CE : 01;
    14CF : 01;
    14D0 : 01;
    14D1 : 01;
    14D2 : 01;
    14D3 : 01;
    14D4 : 01;
    14D5 : 00;
    14D6 : 00;
    14D7 : 01;
    14D8 : 01;
    14D9 : 01;
    14DA : 01;
    14DB : 01;
    14DC : 01;
    14DD : 01;
    14DE : 01;
    14DF : 00;
    14E0 : 00;
    14E1 : 10;
    14E2 : 10;
    14E3 : 10;
    14E4 : 10;
    14E5 : 10;
    14E6 : 10;
    14E7 : 10;
    14E8 : 00;
    14E9 : 00;
    14EA : 01;
    14EB : 01;
    14EC : 01;
    14ED : 01;
    14EE : 01;
    14EF : 01;
    14F0 : 01;
    14F1 : 01;
    14F2 : 01;
    14F3 : 00;
    14F4 : 00;
    14F5 : 01;
    14F6 : 01;
    14F7 : 01;
    14F8 : 01;
    14F9 : 01;
    14FA : 01;
    14FB : 01;
    14FC : 01;
    14FD : 00;
    14FE : 00;
    14FF : 10;
    1500 : 00;
    1501 : 00;
    1502 : 01;
    1503 : 01;
    1504 : 01;
    1505 : 01;
    1506 : 01;
    1507 : 01;
    1508 : 01;
    1509 : 01;
    150A : 01;
    150B : 00;
    150C : 00;
    150D : 10;
    150E : 10;
    150F : 10;
    1510 : 10;
    1511 : 10;
    1512 : 10;
    1513 : 10;
    1514 : 10;
    1515 : 00;
    1516 : 00;
    1517 : 01;
    1518 : 01;
    1519 : 01;
    151A : 01;
    151B : 01;
    151C : 01;
    151D : 01;
    151E : 01;
    151F : 01;
    1520 : 00;
    1521 : 00;
    1522 : 01;
    1523 : 01;
    1524 : 01;
    1525 : 01;
    1526 : 01;
    1527 : 01;
    1528 : 01;
    1529 : 01;
    152A : 01;
    152B : 00;
    152C : 00;
    152D : 01;
    152E : 01;
    152F : 01;
    1530 : 01;
    1531 : 01;
    1532 : 01;
    1533 : 01;
    1534 : 01;
    1535 : 00;
    1536 : 00;
    1537 : 01;
    1538 : 01;
    1539 : 01;
    153A : 01;
    153B : 01;
    153C : 01;
    153D : 01;
    153E : 01;
    153F : 01;
    1540 : 00;
    1541 : 00;
    1542 : 01;
    1543 : 01;
    1544 : 01;
    1545 : 01;
    1546 : 01;
    1547 : 01;
    1548 : 01;
    1549 : 01;
    154A : 01;
    154B : 00;
    154C : 00;
    154D : 01;
    154E : 01;
    154F : 01;
    1550 : 01;
    1551 : 01;
    1552 : 01;
    1553 : 01;
    1554 : 01;
    1555 : 00;
    1556 : 00;
    1557 : 01;
    1558 : 01;
    1559 : 01;
    155A : 01;
    155B : 01;
    155C : 01;
    155D : 01;
    155E : 01;
    155F : 01;
    1560 : 00;
    1561 : 00;
    1562 : 01;
    1563 : 01;
    1564 : 01;
    1565 : 01;
    1566 : 01;
    1567 : 01;
    1568 : 01;
    1569 : 01;
    156A : 01;
    156B : 01;
    156C : 01;
    156D : 01;
    156E : 01;
    156F : 01;
    1570 : 01;
    1571 : 01;
    1572 : 01;
    1573 : 01;
    1574 : 01;
    1575 : 00;
    1576 : 00;
    1577 : 01;
    1578 : 01;
    1579 : 01;
    157A : 01;
    157B : 01;
    157C : 01;
    157D : 01;
    157E : 01;
    157F : 00;
    1580 : 00;
    1581 : 01;
    1582 : 01;
    1583 : 01;
    1584 : 01;
    1585 : 01;
    1586 : 01;
    1587 : 01;
    1588 : 01;
    1589 : 01;
    158A : 00;
    158B : 00;
    158C : 01;
    158D : 01;
    158E : 01;
    158F : 01;
    1590 : 01;
    1591 : 01;
    1592 : 01;
    1593 : 01;
    1594 : 01;
    1595 : 00;
    1596 : 00;
    1597 : 01;
    1598 : 01;
    1599 : 01;
    159A : 01;
    159B : 01;
    159C : 01;
    159D : 01;
    159E : 01;
    159F : 00;
    15A0 : 00;
    15A1 : 10;
    15A2 : 10;
    15A3 : 10;
    15A4 : 10;
    15A5 : 10;
    15A6 : 10;
    15A7 : 10;
    15A8 : 00;
    15A9 : 00;
    15AA : 01;
    15AB : 01;
    15AC : 01;
    15AD : 01;
    15AE : 01;
    15AF : 01;
    15B0 : 01;
    15B1 : 01;
    15B2 : 01;
    15B3 : 00;
    15B4 : 00;
    15B5 : 01;
    15B6 : 01;
    15B7 : 01;
    15B8 : 01;
    15B9 : 01;
    15BA : 01;
    15BB : 01;
    15BC : 01;
    15BD : 00;
    15BE : 00;
    15BF : 10;
    15C0 : 00;
    15C1 : 00;
    15C2 : 01;
    15C3 : 01;
    15C4 : 01;
    15C5 : 01;
    15C6 : 01;
    15C7 : 01;
    15C8 : 01;
    15C9 : 01;
    15CA : 01;
    15CB : 00;
    15CC : 00;
    15CD : 10;
    15CE : 10;
    15CF : 10;
    15D0 : 10;
    15D1 : 10;
    15D2 : 10;
    15D3 : 10;
    15D4 : 10;
    15D5 : 00;
    15D6 : 00;
    15D7 : 01;
    15D8 : 01;
    15D9 : 01;
    15DA : 01;
    15DB : 01;
    15DC : 01;
    15DD : 01;
    15DE : 01;
    15DF : 01;
    15E0 : 00;
    15E1 : 00;
    15E2 : 01;
    15E3 : 01;
    15E4 : 01;
    15E5 : 01;
[...]
    210C : 10;
    210D : 10;
    210E : 10;
    210F : 10;
    2110 : 10;
    2111 : 10;
    2112 : 10;
    2113 : 10;
    2114 : 10;
    2115 : 10;
    2116 : 10;
    2117 : 10;
    2118 : 10;
    2119 : 10;
    211A : 10;
    211B : 10;
    211C : 10;
    211D : 10;
    211E : 10;
    211F : 10;
    2120 : 10;
    2121 : 10;
    2122 : 10;
    2123 : 10;
    2124 : 10;
    2125 : 10;
    2126 : 10;
    2127 : 10;
    2128 : 10;
    2129 : 10;
    212A : 10;
    212B : 10;
    212C : 10;
    212D : 10;
    212E : 10;
    212F : 10;
    2130 : 10;
    2131 : 10;
    2132 : 10;
    2133 : 10;
    2134 : 10;
    2135 : 00;
    2136 : 00;
    2137 : 01;
    2138 : 01;
    2139 : 01;
    213A : 01;
    213B : 01;
    213C : 01;
    213D : 01;
    213E : 01;
    213F : 01;
    2140 : 00;
    2141 : 00;
    2142 : 10;
    2143 : 10;
    2144 : 10;
    2145 : 10;
    2146 : 10;
    2147 : 10;
    2148 : 10;
    2149 : 10;
    214A : 10;
    214B : 00;
    214C : 00;
    214D : 01;
    214E : 01;
    214F : 01;
    2150 : 01;
    2151 : 01;
    2152 : 01;
    2153 : 01;
    2154 : 01;
    2155 : 00;
    2156 : 00;
    2157 : 10;
    2158 : 10;
    2159 : 10;
    215A : 10;
    215B : 10;
    215C : 10;
    215D : 10;
    215E : 10;
    215F : 10;
    2160 : 10;
    2161 : 10;
    2162 : 10;
    2163 : 10;
    2164 : 10;
    2165 : 10;
    2166 : 00;
    2167 : 00;
    2168 : 01;
    2169 : 01;
    216A : 01;
    216B : 01;
    216C : 01;
    216D : 01;
    216E : 01;
    216F : 01;
    2170 : 01;
    2171 : 01;
    2172 : 01;
    2173 : 00;
    2174 : 00;
    2175 : 00;
    2176 : 00;
    2177 : 10;
    2178 : 10;
    2179 : 10;
    217A : 10;
    217B : 10;
    217C : 10;
    217D : 10;
    217E : 10;
    217F : 10;
    2180 : 10;
    2181 : 10;
    2182 : 10;
    2183 : 10;
    2184 : 10;
    2185 : 10;
    2186 : 10;
    2187 : 10;
    2188 : 10;
    2189 : 10;
    218A : 10;
    218B : 10;
    218C : 10;
    218D : 10;
    218E : 10;
    218F : 10;
    2190 : 10;
    2191 : 10;
    2192 : 10;
    2193 : 10;
    2194 : 10;
    2195 : 10;
    2196 : 10;
    2197 : 10;
    2198 : 10;
    2199 : 10;
    219A : 10;
    219B : 10;
    219C : 10;
    219D : 10;
    219E : 10;
    219F : 10;
    21A0 : 10;
    21A1 : 10;
    21A2 : 10;
    21A3 : 10;
    21A4 : 10;
    21A5 : 10;
    21A6 : 10;
    21A7 : 10;
    21A8 : 10;
    21A9 : 10;
    21AA : 10;
    21AB : 10;
    21AC : 10;
    21AD : 10;
    21AE : 10;
    21AF : 10;
    21B0 : 10;
    21B1 : 10;
    21B2 : 10;
    21B3 : 10;
    21B4 : 10;
    21B5 : 10;
    21B6 : 10;
    21B7 : 10;
    21B8 : 10;
    21B9 : 10;
    21BA : 10;
    21BB : 10;
    21BC : 10;
    21BD : 10;
    21BE : 10;
    21BF : 10;
    21C0 : 10;
    21C1 : 10;
    21C2 : 10;
    21C3 : 10;
    21C4 : 10;
    21C5 : 10;
    21C6 : 10;
    21C7 : 10;
    21C8 : 10;
    21C9 : 10;
    21CA : 10;
    21CB : 10;
    21CC : 10;
    21CD : 10;
    21CE : 10;
    21CF : 10;
    21D0 : 10;
    21D1 : 10;
    21D2 : 10;
    21D3 : 10;
    21D4 : 10;
    21D5 : 10;
    21D6 : 10;
    21D7 : 10;
    21D8 : 10;
    21D9 : 10;
    21DA : 10;
    21DB : 10;
    21DC : 10;
    21DD : 10;
    21DE : 10;
    21DF : 10;
    21E0 : 10;
    21E1 : 10;
    21E2 : 10;
    21E3 : 10;
    21E4 : 10;
    21E5 : 10;
    21E6 : 10;
    21E7 : 10;
    21E8 : 10;
    21E9 : 10;
    21EA : 10;
    21EB : 10;
    21EC : 10;
    21ED : 10;
    21EE : 10;
    21EF : 10;
    21F0 : 10;
    21F1 : 10;
    21F2 : 10;
    21F3 : 10;
    21F4 : 10;
    21F5 : 00;
    21F6 : 00;
    21F7 : 01;
    21F8 : 01;
    21F9 : 01;
    21FA : 01;
    21FB : 01;
    21FC : 01;
    21FD : 01;
    21FE : 01;
    21FF : 01;
    2200 : 00;
    2201 : 00;
    2202 : 10;
    2203 : 10;
    2204 : 10;
    2205 : 10;
    2206 : 10;
    2207 : 10;
    2208 : 10;
    2209 : 10;
    220A : 10;
    220B : 00;
    220C : 00;
    220D : 01;
    220E : 01;
    220F : 01;
    2210 : 01;
    2211 : 01;
    2212 : 01;
    2213 : 01;
    2214 : 01;
    2215 : 00;
    2216 : 00;
    2217 : 10;
    2218 : 10;
    2219 : 10;
    221A : 10;
    221B : 10;
    221C : 10;
    221D : 10;
    221E : 10;
    221F : 10;
    2220 : 10;
    2221 : 10;
    2222 : 10;
    2223 : 10;
    2224 : 10;
    2225 : 10;
    2226 : 00;
    2227 : 00;
    2228 : 01;
    2229 : 01;
    222A : 01;
    222B : 01;
    222C : 01;
    222D : 01;
    222E : 01;
    222F : 01;
    2230 : 01;
    2231 : 00;
    2232 : 00;
    2233 : 00;
    2234 : 00;
    2235 : 10;
    2236 : 10;
    2237 : 10;
    2238 : 10;
    2239 : 10;
    223A : 10;
    223B : 10;
    223C : 10;
    223D : 10;
    223E : 10;
    223F : 10;
    2240 : 10;
    2241 : 10;
    2242 : 10;
    2243 : 10;
    2244 : 10;
    2245 : 10;
    2246 : 10;
    2247 : 10;
    2248 : 10;
    2249 : 10;
    224A : 10;
    224B : 10;
    224C : 10;
    224D : 10;
    224E : 10;
    224F : 10;
    2250 : 10;
    2251 : 10;
    2252 : 10;
    2253 : 10;
    2254 : 10;
    2255 : 10;
    2256 : 10;
    2257 : 10;
    2258 : 10;
    2259 : 10;
    225A : 10;
    225B : 10;
    225C : 10;
    225D : 10;
    225E : 10;
    225F : 10;
    2260 : 10;
    2261 : 10;
    2262 : 10;
    2263 : 10;
    2264 : 10;
    2265 : 10;
    2266 : 10;
    2267 : 10;
    2268 : 10;
    2269 : 10;
    226A : 10;
    226B : 10;
    226C : 10;
    226D : 10;
    226E : 10;
    226F : 10;
    2270 : 10;
    2271 : 10;
    2272 : 10;
    2273 : 10;
    2274 : 10;
    2275 : 10;
    2276 : 10;
    2277 : 10;
    2278 : 10;
    2279 : 10;
    227A : 10;
    227B : 10;
    227C : 10;
    227D : 10;
    227E : 10;
    227F : 10;
    2280 : 10;
    2281 : 10;
    2282 : 10;
    2283 : 10;
    2284 : 10;
    2285 : 10;
    2286 : 10;
    2287 : 10;
    2288 : 10;
    2289 : 10;
    228A : 10;
    228B : 10;
    228C : 10;
    228D : 10;
    228E : 10;
    228F : 10;
    2290 : 10;
    2291 : 10;
    2292 : 10;
    2293 : 10;
    2294 : 10;
    2295 : 10;
    2296 : 10;
    2297 : 10;
    2298 : 10;
    2299 : 10;
    229A : 10;
    229B : 10;
    229C : 10;
    229D : 10;
    229E : 10;
    229F : 10;
    22A0 : 10;
    22A1 : 10;
    22A2 : 10;
    22A3 : 10;
    22A4 : 10;
    22A5 : 10;
    22A6 : 10;
    22A7 : 10;
    22A8 : 10;
    22A9 : 10;
    22AA : 10;
    22AB : 10;
    22AC : 10;
    22AD : 10;
    22AE : 10;
    22AF : 10;
    22B0 : 10;
    22B1 : 10;
    22B2 : 10;
    22B3 : 10;
    22B4 : 10;
    22B5 : 00;
    22B6 : 00;
    22B7 : 01;
    22B8 : 01;
    22B9 : 01;
    22BA : 01;
    22BB : 01;
    22BC : 01;
    22BD : 01;
    22BE : 01;
    22BF : 01;
    22C0 : 00;
    22C1 : 00;
    22C2 : 10;
    22C3 : 10;
    22C4 : 10;
    22C5 : 10;
    22C6 : 10;
    22C7 : 10;
    22C8 : 10;
    22C9 : 10;
    22CA : 10;
    22CB : 00;
    22CC : 00;
    22CD : 01;
    22CE : 01;
    22CF : 01;
    22D0 : 01;
    22D1 : 01;
    22D2 : 01;
    22D3 : 01;
    22D4 : 01;
    22D5 : 00;
    22D6 : 00;
    22D7 : 10;
    22D8 : 10;
    22D9 : 10;
    22DA : 10;
    22DB : 10;
    22DC : 10;
    22DD : 10;
    22DE : 10;
    22DF : 10;
    22E0 : 10;
    22E1 : 10;
    22E2 : 10;
    22E3 : 10;
    22E4 : 10;
    22E5 : 10;
    22E6 : 00;
    22E7 : 00;
    22E8 : 01;
    22E9 : 01;
    22EA : 01;
    22EB : 01;
    22EC : 01;
    22ED : 01;
    22EE : 01;
    22EF : 01;
    22F0 : 01;
    22F1 : 00;
    22F2 : 00;
    22F3 : 00;
    22F4 : 00;
    22F5 : 10;
    22F6 : 10;
    22F7 : 10;
    22F8 : 10;
    22F9 : 10;
    22FA : 10;
    22FB : 10;
    22FC : 10;
    22FD : 10;
    22FE : 10;
    22FF : 10;
    2300 : 10;
    2301 : 10;
    2302 : 10;
    2303 : 10;
    2304 : 10;
    2305 : 10;
    2306 : 10;
    2307 : 10;
    2308 : 10;
    2309 : 10;
    230A : 10;
    230B : 10;
    230C : 10;
    230D : 10;
    230E : 10;
    230F : 10;
    2310 : 10;
    2311 : 10;
    2312 : 10;
    2313 : 10;
    2314 : 10;
    2315 : 10;
    2316 : 10;
    2317 : 10;
    2318 : 10;
    2319 : 10;
    231A : 10;
    231B : 10;
    231C : 10;
    231D : 10;
    231E : 10;
    231F : 10;
    2320 : 10;
    2321 : 10;
    2322 : 10;
    2323 : 10;
    2324 : 10;
    2325 : 10;
    2326 : 10;
    2327 : 10;
    2328 : 10;
    2329 : 10;
    232A : 10;
    232B : 10;
    232C : 10;
    232D : 10;
    232E : 10;
    232F : 10;
    2330 : 10;
    2331 : 10;
    2332 : 10;
    2333 : 10;
    2334 : 10;
    2335 : 10;
    2336 : 10;
    2337 : 10;
    2338 : 10;
    2339 : 10;
    233A : 10;
    233B : 10;
    233C : 10;
    233D : 10;
    233E : 10;
    233F : 10;
    2340 : 10;
    2341 : 10;
    2342 : 10;
    2343 : 10;
    2344 : 10;
    2345 : 10;
    2346 : 10;
    2347 : 10;
    2348 : 10;
    2349 : 10;
    234A : 10;
    234B : 10;
    234C : 10;
    234D : 10;
    234E : 10;
    234F : 10;
    2350 : 10;
    2351 : 10;
    2352 : 10;
    2353 : 10;
    2354 : 10;
    2355 : 10;
    2356 : 10;
    2357 : 10;
    2358 : 10;
    2359 : 10;
    235A : 10;
    235B : 10;
    235C : 10;
    235D : 10;
    235E : 10;
    235F : 10;
    2360 : 10;
    2361 : 10;
    2362 : 10;
    2363 : 10;
    2364 : 10;
    2365 : 10;
    2366 : 10;
    2367 : 10;
    2368 : 10;
    2369 : 10;
    236A : 10;
    236B : 10;
    236C : 10;
    236D : 10;
    236E : 10;
    236F : 10;
    2370 : 10;
    2371 : 10;
    2372 : 10;
    2373 : 10;
    2374 : 10;
    2375 : 00;
    2376 : 00;
    2377 : 00;
    2378 : 00;
    2379 : 00;
    237A : 00;
    237B : 00;
    237C : 00;
    237D : 00;
    237E : 00;
    237F : 00;
    2380 : 00;
    2381 : 00;
    2382 : 10;
    2383 : 10;
    2384 : 10;
    2385 : 10;
    2386 : 10;
    2387 : 10;
    2388 : 10;
    2389 : 10;
    238A : 10;
    238B : 00;
    238C : 00;
    238D : 00;
    238E : 00;
    238F : 00;
    2390 : 00;
    2391 : 00;
    2392 : 00;
    2393 : 00;
    2394 : 00;
    2395 : 00;
    2396 : 00;
    2397 : 10;
    2398 : 10;
    2399 : 10;
    239A : 10;
    239B : 10;
    239C : 10;
    239D : 10;
    239E : 10;
    239F : 10;
    23A0 : 10;
    23A1 : 10;
    23A2 : 10;
    23A3 : 10;
    23A4 : 10;
    23A5 : 10;
    23A6 : 00;
    23A7 : 00;
    23A8 : 00;
    23A9 : 00;
    23AA : 00;
    23AB : 00;
    23AC : 00;
    23AD : 00;
    23AE : 00;
    23AF : 00;
    23B0 : 00;
    23B1 : 00;
    23B2 : 00;
    23B3 : 10;
    23B4 : 10;
    23B5 : 10;
    23B6 : 10;
    23B7 : 10;
    23B8 : 10;
    23B9 : 10;
    23BA : 10;
    23BB : 10;
    23BC : 10;
    23BD : 10;
    23BE : 10;
    23BF : 10;
    23C0 : 10;
    23C1 : 10;
    23C2 : 10;
    23C3 : 10;
    23C4 : 10;
    23C5 : 10;
    23C6 : 10;
    23C7 : 10;
    23C8 : 10;
    23C9 : 10;
    23CA : 10;
    23CB : 10;
    23CC : 10;
    23CD : 10;
    23CE : 10;
    23CF : 10;
    23D0 : 10;
    23D1 : 10;
    23D2 : 10;
    23D3 : 10;
    23D4 : 10;
    23D5 : 10;
    23D6 : 10;
    23D7 : 10;
    23D8 : 10;
    23D9 : 10;
    23DA : 10;
    23DB : 10;
    23DC : 10;
    23DD : 10;
    23DE : 10;
    23DF : 10;
    23E0 : 10;
    23E1 : 10;
    23E2 : 10;
    23E3 : 10;
    23E4 : 10;
    23E5 : 10;
    23E6 : 10;
    23E7 : 10;
    23E8 : 10;
    23E9 : 10;
    23EA : 10;
    23EB : 10;
    23EC : 10;
    23ED : 10;
    23EE : 10;
    23EF : 10;
    23F0 : 10;
    23F1 : 10;
    23F2 : 10;
    23F3 : 10;
    23F4 : 10;
    23F5 : 10;
    23F6 : 10;
    23F7 : 10;
    23F8 : 10;
    23F9 : 10;
    23FA : 10;
    23FB : 10;
    23FC : 10;
    23FD : 10;
    23FE : 10;
    23FF : 10;
    2400 : 10;
    2401 : 10;
    2402 : 10;
    2403 : 10;
    2404 : 10;
    2405 : 10;
    2406 : 10;
    2407 : 10;
    2408 : 10;
    2409 : 10;
    240A : 10;
    240B : 10;
    240C : 10;
    240D : 10;
    240E : 10;
    240F : 10;
    2410 : 10;
    2411 : 10;
    2412 : 10;
    2413 : 10;
    2414 : 10;
    2415 : 10;
    2416 : 10;
    2417 : 10;
    2418 : 10;
    2419 : 10;
    241A : 10;
    241B : 10;
    241C : 10;
    241D : 10;
    241E : 10;
    241F : 10;
    2420 : 10;
    2421 : 10;
    2422 : 10;
    2423 : 10;
    2424 : 10;
    2425 : 10;
    2426 : 10;
    2427 : 10;
    2428 : 10;
    2429 : 10;
    242A : 10;
    242B : 10;
    242C : 10;
    242D : 10;
    242E : 10;
    242F : 10;
    2430 : 10;
    2431 : 10;
    2432 : 10;
    2433 : 10;
    2434 : 10;
    2435 : 00;
    2436 : 00;
    2437 : 00;
    2438 : 00;
    2439 : 00;
    243A : 00;
    243B : 00;
    243C : 00;
    243D : 00;
    243E : 00;
    243F : 00;
    2440 : 00;
    2441 : 00;
    2442 : 10;
    2443 : 10;
    2444 : 10;
    2445 : 10;
    2446 : 10;
    2447 : 10;
    2448 : 10;
    2449 : 10;
    244A : 10;
    244B : 00;
    244C : 00;
    244D : 00;
    244E : 00;
    244F : 00;
    2450 : 00;
    2451 : 00;
    2452 : 00;
    2453 : 00;
    2454 : 00;
    2455 : 00;
    2456 : 00;
    2457 : 10;
    2458 : 10;
    2459 : 10;
    245A : 10;
    245B : 10;
    245C : 10;
    245D : 10;
    245E : 10;
    245F : 10;
    2460 : 10;
    2461 : 10;
    2462 : 10;
    2463 : 10;
    2464 : 10;
    2465 : 10;
    2466 : 00;
    2467 : 00;
    2468 : 00;
    2469 : 00;
    246A : 00;
    246B : 00;
    246C : 00;
    246D : 00;
    246E : 00;
    246F : 00;
    2470 : 00;
    2471 : 00;
    2472 : 00;
    2473 : 10;
    2474 : 10;
    2475 : 10;
    2476 : 10;
    2477 : 10;
    2478 : 10;
    2479 : 10;
    247A : 10;
    247B : 10;
    247C : 10;
    247D : 10;
    247E : 10;
    247F : 10;
    2480 : 10;
    2481 : 10;
    2482 : 10;
    2483 : 10;
    2484 : 10;
    2485 : 10;
    2486 : 10;
    2487 : 10;
    2488 : 10;
    2489 : 10;
    248A : 10;
    248B : 10;
    248C : 10;
    248D : 10;
    248E : 10;
    248F : 10;
    2490 : 10;
    2491 : 10;
    2492 : 10;
    2493 : 10;
    2494 : 10;
    2495 : 10;
    2496 : 10;
    2497 : 10;
    2498 : 10;
    2499 : 10;
    249A : 10;
    249B : 10;
    249C : 10;
    249D : 10;
    249E : 10;
    249F : 10;
    24A0 : 10;
    24A1 : 10;
    24A2 : 10;
    24A3 : 10;
    24A4 : 10;
    24A5 : 10;
    24A6 : 10;
    24A7 : 10;
    24A8 : 10;
    24A9 : 10;
    24AA : 10;
    24AB : 10;
    24AC : 10;
    24AD : 10;
    24AE : 10;
    24AF : 10;
    24B0 : 10;
    24B1 : 10;
    24B2 : 10;
    24B3 : 10;
    24B4 : 10;
    24B5 : 10;
    24B6 : 10;
    24B7 : 10;
    24B8 : 10;
    24B9 : 10;
    24BA : 10;
    24BB : 10;
    24BC : 10;
    24BD : 10;
    24BE : 10;
    24BF : 10;
    24C0 : 10;
    24C1 : 10;
    24C2 : 10;
    24C3 : 10;
    24C4 : 10;
    24C5 : 10;
    24C6 : 10;
    24C7 : 10;
    24C8 : 10;
    24C9 : 10;
    24CA : 10;
    24CB : 10;
    24CC : 10;
    24CD : 10;
    24CE : 10;
    24CF : 10;
    24D0 : 10;
    24D1 : 10;
    24D2 : 10;
    24D3 : 10;
    24D4 : 10;
    24D5 : 10;
    24D6 : 10;
    24D7 : 10;
    24D8 : 10;
    24D9 : 10;
    24DA : 10;
    24DB : 10;
    24DC : 10;
    24DD : 10;
    24DE : 10;
    24DF : 10;
    24E0 : 10;
    24E1 : 10;
    24E2 : 10;
    24E3 : 10;
    24E4 : 10;
    24E5 : 10;
    24E6 : 10;
    24E7 : 10;
    24E8 : 10;
    24E9 : 10;
    24EA : 10;
    24EB : 10;
    24EC : 10;
    24ED : 10;
    24EE : 10;
    24EF : 10;
    24F0 : 10;
    24F1 : 10;
    24F2 : 10;
    24F3 : 10;
    24F4 : 10;
    24F5 : 00;
    24F6 : 00;
    24F7 : 00;
    24F8 : 00;
    24F9 : 00;
    24FA : 00;
    24FB : 00;
    24FC : 00;
    24FD : 00;
    24FE : 00;
    24FF : 00;
    2500 : 00;
    2501 : 00;
    2502 : 10;
    2503 : 10;
    2504 : 10;
    2505 : 10;
    2506 : 10;
    2507 : 10;
    2508 : 10;
    2509 : 10;
    250A : 10;
    250B : 00;
    250C : 00;
    250D : 00;
    250E : 00;
    250F : 00;
    2510 : 00;
    2511 : 00;
    2512 : 00;
    2513 : 00;
    2514 : 00;
    2515 : 00;
    2516 : 00;
    2517 : 10;
    2518 : 10;
    2519 : 10;
    251A : 10;
    251B : 10;
    251C : 10;
    251D : 10;
    251E : 10;
    251F : 10;
    2520 : 10;
    2521 : 10;
    2522 : 10;
    2523 : 10;
    2524 : 10;
    2525 : 10;
    2526 : 00;
    2527 : 00;
    2528 : 00;
    2529 : 00;
    252A : 00;
    252B : 00;
    252C : 00;
    252D : 00;
    252E : 00;
    252F : 00;
    2530 : 00;
    2531 : 10;
    2532 : 10;
    2533 : 10;
    2534 : 10;
    2535 : 10;
    2536 : 10;
    2537 : 10;
    2538 : 10;
    2539 : 10;
    253A : 10;
    253B : 10;
    253C : 10;
    253D : 10;
    253E : 10;
    253F : 10;
    2540 : 10;
    2541 : 10;
    2542 : 10;
    2543 : 10;
    2544 : 10;
    2545 : 10;
    2546 : 10;
    2547 : 10;
    2548 : 10;
    2549 : 10;
    254A : 10;
    254B : 10;
    254C : 10;
    254D : 10;
    254E : 10;
    254F : 10;
    2550 : 10;
    2551 : 10;
    2552 : 10;
    2553 : 10;
    2554 : 10;
    2555 : 10;
    2556 : 10;
    2557 : 10;
    2558 : 10;
    2559 : 10;
    255A : 10;
    255B : 10;
    255C : 10;
    255D : 10;
    255E : 10;
    255F : 10;
    2560 : 10;
    2561 : 10;
    2562 : 10;
    2563 : 10;
    2564 : 10;
    2565 : 10;
    2566 : 10;
    2567 : 10;
    2568 : 10;
    2569 : 10;
    256A : 10;
    256B : 10;
    256C : 10;
    256D : 10;
    256E : 10;
    256F : 10;
    2570 : 10;
    2571 : 10;
    2572 : 10;
    2573 : 10;
    2574 : 10;
    2575 : 10;
    2576 : 10;
    2577 : 10;
    2578 : 10;
    2579 : 10;
    257A : 10;
    257B : 10;
    257C : 10;
    257D : 10;
    257E : 10;
    257F : 10;
    2580 : 10;
    2581 : 10;
    2582 : 10;
    2583 : 10;
    2584 : 10;
    2585 : 10;
    2586 : 10;
    2587 : 10;
    2588 : 10;
    2589 : 10;
    258A : 10;
    258B : 10;
    258C : 10;
    258D : 10;
    258E : 10;
    258F : 10;
    2590 : 10;
    2591 : 10;
    2592 : 10;
    2593 : 10;
    2594 : 10;
    2595 : 10;
    2596 : 10;
    2597 : 10;
    2598 : 10;
    2599 : 10;
    259A : 10;
    259B : 10;
    259C : 10;
    259D : 10;
    259E : 10;
    259F : 10;
    25A0 : 10;
    25A1 : 10;
    25A2 : 10;
    25A3 : 10;
    25A4 : 10;
    25A5 : 10;
    25A6 : 10;
    25A7 : 10;
    25A8 : 10;
    25A9 : 10;
    25AA : 10;
    25AB : 10;
    25AC : 10;
    25AD : 10;
    25AE : 10;
    25AF : 10;
    25B0 : 10;
    25B1 : 10;
    25B2 : 10;
    25B3 : 10;
    25B4 : 10;
    25B5 : 00;
    25B6 : 00;
    25B7 : 00;
    25B8 : 00;
    25B9 : 00;
    25BA : 00;
    25BB : 00;
    25BC : 00;
    25BD : 00;
    25BE : 00;
    25BF : 00;
    25C0 : 00;
    25C1 : 00;
    25C2 : 10;
    25C3 : 10;
    25C4 : 10;
    25C5 : 10;
    25C6 : 10;
    25C7 : 10;
    25C8 : 10;
    25C9 : 10;
    25CA : 10;
    25CB : 00;
    25CC : 00;
    25CD : 00;
    25CE : 00;
    25CF : 00;
    25D0 : 00;
    25D1 : 00;
    25D2 : 00;
    25D3 : 00;
    25D4 : 00;
    25D5 : 00;
    25D6 : 00;
    25D7 : 10;
    25D8 : 10;
    25D9 : 10;
    25DA : 10;
    25DB : 10;
    25DC : 10;
    25DD : 10;
    25DE : 10;
    25DF : 10;
    25E0 : 10;
    25E1 : 10;
    25E2 : 10;
    25E3 : 10;
    25E4 : 10;
    25E5 : 10;
    25E6 : 00;
    25E7 : 00;
    25E8 : 00;
    25E9 : 00;
    25EA : 00;
    25EB : 00;
    25EC : 00;
    25ED : 00;
    25EE : 00;
    25EF : 00;
    25F0 : 00;
    25F1 : 10;
    25F2 : 10;
    25F3 : 10;
    25F4 : 10;
    25F5 : 10;
    25F6 : 10;
    25F7 : 10;
    25F8 : 10;
    25F9 : 10;
    25FA : 10;
    25FB : 10;
    25FC : 10;
    25FD : 10;
    25FE : 10;
    25FF : 10;
    2600 : 10;
    2601 : 10;
    2602 : 10;
    2603 : 10;
    2604 : 10;
    2605 : 10;
    2606 : 10;
    2607 : 10;
    2608 : 10;
    2609 : 10;
    260A : 10;
    260B : 10;
    260C : 10;
    260D : 10;
    260E : 10;
    260F : 10;
    2610 : 10;
    2611 : 10;
    2612 : 10;
    2613 : 10;
    2614 : 10;
    2615 : 10;
    2616 : 10;
    2617 : 10;
    2618 : 10;
    2619 : 10;
    261A : 10;
    261B : 10;
    261C : 10;
    261D : 10;
    261E : 10;
    261F : 10;
    2620 : 10;
    2621 : 10;
    2622 : 10;
    2623 : 10;
    2624 : 10;
    2625 : 10;
    2626 : 10;
    2627 : 10;
    2628 : 10;
    2629 : 10;
    262A : 10;
    262B : 10;
    262C : 10;
    262D : 10;
    262E : 10;
    262F : 10;
    2630 : 10;
    2631 : 10;
    2632 : 10;
    2633 : 10;
    2634 : 10;
    2635 : 10;
    2636 : 10;
    2637 : 10;
    2638 : 10;
    2639 : 10;
    263A : 10;
    263B : 10;
    263C : 10;
    263D : 10;
    263E : 10;
    263F : 10;

END;
