-- Memory Initialization File (.mif)
-- Generated from: pixil-frame-0 (2).png
-- Image dimensions: 56x21
-- Color format: 12-bit RGB (4 bits per channel)
-- Target FPGA: EP3C16F484

DEPTH = 1176;
WIDTH = 12;

ADDRESS_RADIX = HEX;
DATA_RADIX = HEX;

CONTENT
BEGIN

    0 : 000;
    1 : 000;
    2 : 000;
    3 : 000;
    4 : 000;
    5 : 000;
    6 : 000;
    7 : 000;
    8 : 000;
    9 : 000;
    A : 000;
    B : 000;
    C : 000;
    D : 000;
    E : 000;
    F : 000;
    10 : 000;
    11 : 000;
    12 : 000;
    13 : 000;
    14 : 000;
    15 : 000;
    16 : 000;
    17 : 000;
    18 : 000;
    19 : 000;
    1A : 000;
    1B : 000;
    1C : 000;
    1D : 000;
    1E : 000;
    1F : 000;
    20 : 000;
    21 : 000;
    22 : 000;
    23 : 000;
    24 : 000;
    25 : 000;
    26 : 000;
    27 : 000;
    28 : 000;
    29 : 000;
    2A : 000;
    2B : 000;
    2C : 000;
    2D : 000;
    2E : 000;
    2F : 000;
    30 : 000;
    31 : 000;
    32 : 000;
    33 : 000;
    34 : 000;
    35 : 000;
    36 : 000;
    37 : 000;
    38 : 000;
    39 : 000;
    3A : 000;
    3B : 000;
    3C : 000;
    3D : 000;
    3E : 000;
    3F : 000;
    40 : 000;
    41 : 000;
    42 : 000;
    43 : 000;
    44 : 000;
    45 : 000;
    46 : 000;
    47 : 000;
    48 : 000;
    49 : 000;
    4A : 000;
    4B : 000;
    4C : 000;
    4D : 000;
    4E : 000;
    4F : 000;
    50 : 000;
    51 : 000;
    52 : 000;
    53 : 000;
    54 : 000;
    55 : 000;
    56 : 000;
    57 : 000;
    58 : 000;
    59 : 000;
    5A : 000;
    5B : 000;
    5C : 000;
    5D : 000;
    5E : 000;
    5F : 000;
    60 : 000;
    61 : 000;
    62 : 000;
    63 : 000;
    64 : 000;
    65 : 000;
    66 : 000;
    67 : 000;
    68 : 000;
    69 : 000;
    6A : 000;
    6B : 000;
    6C : 000;
    6D : 000;
    6E : 000;
    6F : 000;
    70 : 000;
    71 : 000;
    72 : 693;
    73 : 693;
    74 : 693;
    75 : 693;
    76 : 8C4;
    77 : 8C4;
    78 : 8C4;
    79 : 8C4;
    7A : 8C4;
    7B : 8C4;
    7C : 8C4;
    7D : 8C4;
    7E : 8C4;
    7F : 8C4;
    80 : 8C4;
    81 : 8C4;
    82 : 8C4;
    83 : 8C4;
    84 : 8C4;
    85 : 8C4;
    86 : 8C4;
    87 : 8C4;
    88 : 8C4;
    89 : 8C4;
    8A : 8C4;
    8B : 8C4;
    8C : 8C4;
    8D : 8C4;
    8E : 8C4;
    8F : 8C4;
    90 : 8C4;
    91 : 8C4;
    92 : 8C4;
    93 : 8C4;
    94 : 8C4;
    95 : 8C4;
    96 : 8C4;
    97 : 8C4;
    98 : 8C4;
    99 : 8C4;
    9A : BF5;
    9B : BF5;
    9C : 8C4;
    9D : 8C4;
    9E : BF5;
    9F : BF5;
    A0 : BF5;
    A1 : BF5;
    A2 : CF9;
    A3 : CF9;
    A4 : CF9;
    A5 : CF9;
    A6 : 000;
    A7 : 000;
    A8 : 000;
    A9 : 000;
    AA : 693;
    AB : 693;
    AC : 693;
    AD : 693;
    AE : 8C4;
    AF : 8C4;
    B0 : 8C4;
    B1 : 8C4;
    B2 : 8C4;
    B3 : 8C4;
    B4 : 8C4;
    B5 : 8C4;
    B6 : 8C4;
    B7 : 8C4;
    B8 : 8C4;
    B9 : 8C4;
    BA : 8C4;
    BB : 8C4;
    BC : 8C4;
    BD : 8C4;
    BE : 8C4;
    BF : 8C4;
    C0 : 8C4;
    C1 : 8C4;
    C2 : 8C4;
    C3 : 8C4;
    C4 : 8C4;
    C5 : 8C4;
    C6 : 8C4;
    C7 : 8C4;
    C8 : 8C4;
    C9 : 8C4;
    CA : 8C4;
    CB : 8C4;
    CC : 8C4;
    CD : 8C4;
    CE : 8C4;
    CF : 8C4;
    D0 : 8C4;
    D1 : 8C4;
    D2 : BF5;
    D3 : BF5;
    D4 : 8C4;
    D5 : 8C4;
    D6 : BF5;
    D7 : BF5;
    D8 : BF5;
    D9 : BF5;
    DA : CF9;
    DB : CF9;
    DC : CF9;
    DD : CF9;
    DE : 000;
    DF : 000;
    E0 : 000;
    E1 : 000;
    E2 : 693;
    E3 : 693;
    E4 : 693;
    E5 : 693;
    E6 : 8C4;
    E7 : 8C4;
    E8 : 8C4;
    E9 : 8C4;
    EA : 8C4;
    EB : 8C4;
    EC : 8C4;
    ED : 8C4;
    EE : 8C4;
    EF : 8C4;
    F0 : 8C4;
    F1 : 8C4;
    F2 : 8C4;
    F3 : 8C4;
    F4 : 8C4;
    F5 : 8C4;
    F6 : 8C4;
    F7 : 8C4;
    F8 : 8C4;
    F9 : 8C4;
    FA : 8C4;
    FB : 8C4;
    FC : 8C4;
    FD : 8C4;
    FE : 8C4;
    FF : 8C4;
    100 : 8C4;
    101 : 8C4;
    102 : 8C4;
    103 : 8C4;
    104 : 8C4;
    105 : 8C4;
    106 : 8C4;
    107 : 8C4;
    108 : 8C4;
    109 : 8C4;
    10A : BF5;
    10B : BF5;
    10C : 8C4;
    10D : 8C4;
    10E : BF5;
    10F : BF5;
    110 : BF5;
    111 : BF5;
    112 : CF9;
    113 : CF9;
    114 : CF9;
    115 : CF9;
    116 : 000;
    117 : 000;
    118 : 000;
    119 : 000;
    11A : 693;
    11B : 693;
    11C : 693;
    11D : 693;
    11E : 8C4;
    11F : 8C4;
    120 : 8C4;
    121 : 8C4;
    122 : 8C4;
    123 : 8C4;
    124 : 8C4;
    125 : 8C4;
    126 : 8C4;
    127 : 8C4;
    128 : 8C4;
    129 : 8C4;
    12A : 8C4;
    12B : 8C4;
    12C : 8C4;
    12D : 8C4;
    12E : 8C4;
    12F : 8C4;
    130 : 8C4;
    131 : 8C4;
    132 : 8C4;
    133 : 8C4;
    134 : 8C4;
    135 : 8C4;
    136 : 8C4;
    137 : 8C4;
    138 : 8C4;
    139 : 8C4;
    13A : 8C4;
    13B : 8C4;
    13C : 8C4;
    13D : 8C4;
    13E : 8C4;
    13F : 8C4;
    140 : 8C4;
    141 : 8C4;
    142 : BF5;
    143 : BF5;
    144 : 8C4;
    145 : 8C4;
    146 : BF5;
    147 : BF5;
    148 : BF5;
    149 : BF5;
    14A : CF9;
    14B : CF9;
    14C : CF9;
    14D : CF9;
    14E : 000;
    14F : 000;
    150 : 000;
    151 : 000;
    152 : 693;
    153 : 693;
    154 : 693;
    155 : 693;
    156 : 8C4;
    157 : 8C4;
    158 : 8C4;
    159 : 8C4;
    15A : 8C4;
    15B : 8C4;
    15C : 8C4;
    15D : 8C4;
    15E : 8C4;
    15F : 8C4;
    160 : 8C4;
    161 : 8C4;
    162 : 8C4;
    163 : 8C4;
    164 : 8C4;
    165 : 8C4;
    166 : 8C4;
    167 : 8C4;
    168 : 8C4;
    169 : 8C4;
    16A : 8C4;
    16B : 8C4;
    16C : 8C4;
    16D : 8C4;
    16E : 8C4;
    16F : 8C4;
    170 : 8C4;
    171 : 8C4;
    172 : 8C4;
    173 : 8C4;
    174 : 8C4;
    175 : 8C4;
    176 : 8C4;
    177 : 8C4;
    178 : 8C4;
    179 : 8C4;
    17A : BF5;
    17B : BF5;
    17C : 8C4;
    17D : 8C4;
    17E : BF5;
    17F : BF5;
    180 : BF5;
    181 : BF5;
    182 : CF9;
    183 : CF9;
    184 : CF9;
    185 : CF9;
    186 : 000;
    187 : 000;
    188 : 000;
    189 : 000;
    18A : 693;
    18B : 693;
    18C : 693;
    18D : 693;
    18E : 8C4;
    18F : 8C4;
    190 : 8C4;
    191 : 8C4;
    192 : 8C4;
    193 : 8C4;
    194 : 8C4;
    195 : 8C4;
    196 : 8C4;
    197 : 8C4;
    198 : 8C4;
    199 : 8C4;
    19A : 8C4;
    19B : 8C4;
    19C : 8C4;
    19D : 8C4;
    19E : 8C4;
    19F : 8C4;
    1A0 : 8C4;
    1A1 : 8C4;
    1A2 : 8C4;
    1A3 : 8C4;
    1A4 : 8C4;
    1A5 : 8C4;
    1A6 : 8C4;
    1A7 : 8C4;
    1A8 : 8C4;
    1A9 : 8C4;
    1AA : 8C4;
    1AB : 8C4;
    1AC : 8C4;
    1AD : 8C4;
    1AE : 8C4;
    1AF : 8C4;
    1B0 : 8C4;
    1B1 : 8C4;
    1B2 : BF5;
    1B3 : BF5;
    1B4 : 8C4;
    1B5 : 8C4;
    1B6 : BF5;
    1B7 : BF5;
    1B8 : BF5;
    1B9 : BF5;
    1BA : CF9;
    1BB : CF9;
    1BC : CF9;
    1BD : CF9;
    1BE : 000;
    1BF : 000;
    1C0 : 000;
    1C1 : 000;
    1C2 : 693;
    1C3 : 693;
    1C4 : 693;
    1C5 : 693;
    1C6 : 8C4;
    1C7 : 8C4;
    1C8 : 8C4;
    1C9 : 8C4;
    1CA : 8C4;
    1CB : 8C4;
    1CC : 8C4;
    1CD : 8C4;
    1CE : 8C4;
    1CF : 8C4;
    1D0 : 8C4;
    1D1 : 8C4;
    1D2 : 8C4;
    1D3 : 8C4;
    1D4 : 8C4;
    1D5 : 8C4;
    1D6 : 8C4;
    1D7 : 8C4;
    1D8 : 8C4;
    1D9 : 8C4;
    1DA : 8C4;
    1DB : 8C4;
    1DC : 8C4;
    1DD : 8C4;
    1DE : 8C4;
    1DF : 8C4;
    1E0 : 8C4;
    1E1 : 8C4;
    1E2 : 8C4;
    1E3 : 8C4;
    1E4 : 8C4;
    1E5 : 8C4;
    1E6 : 8C4;
    1E7 : 8C4;
    1E8 : 8C4;
    1E9 : 8C4;
    1EA : BF5;
    1EB : BF5;
    1EC : 8C4;
    1ED : 8C4;
    1EE : BF5;
    1EF : BF5;
    1F0 : BF5;
    1F1 : BF5;
    1F2 : CF9;
    1F3 : CF9;
    1F4 : CF9;
    1F5 : CF9;
    1F6 : 000;
    1F7 : 000;
    1F8 : 000;
    1F9 : 000;
    1FA : 693;
    1FB : 693;
    1FC : 693;
    1FD : 693;
    1FE : 8C4;
    1FF : 8C4;
    200 : 8C4;
    201 : 8C4;
    202 : 8C4;
    203 : 8C4;
    204 : 8C4;
    205 : 8C4;
    206 : 8C4;
    207 : 8C4;
    208 : 8C4;
    209 : 8C4;
    20A : 8C4;
    20B : 8C4;
    20C : 8C4;
    20D : 8C4;
    20E : 8C4;
    20F : 8C4;
    210 : 8C4;
    211 : 8C4;
    212 : 8C4;
    213 : 8C4;
    214 : 8C4;
    215 : 8C4;
    216 : 8C4;
    217 : 8C4;
    218 : 8C4;
    219 : 8C4;
    21A : 8C4;
    21B : 8C4;
    21C : 8C4;
    21D : 8C4;
    21E : 8C4;
    21F : 8C4;
    220 : 8C4;
    221 : 8C4;
    222 : BF5;
    223 : BF5;
    224 : 8C4;
    225 : 8C4;
    226 : BF5;
    227 : BF5;
    228 : BF5;
    229 : BF5;
    22A : CF9;
    22B : CF9;
    22C : CF9;
    22D : CF9;
    22E : 000;
    22F : 000;
    230 : 000;
    231 : 000;
    232 : 693;
    233 : 693;
    234 : 693;
    235 : 693;
    236 : 8C4;
    237 : 8C4;
    238 : 8C4;
    239 : 8C4;
    23A : 8C4;
    23B : 8C4;
    23C : 8C4;
    23D : 8C4;
    23E : 8C4;
    23F : 8C4;
    240 : 8C4;
    241 : 8C4;
    242 : 8C4;
    243 : 8C4;
    244 : 8C4;
    245 : 8C4;
    246 : 8C4;
    247 : 8C4;
    248 : 8C4;
    249 : 8C4;
    24A : 8C4;
    24B : 8C4;
    24C : 8C4;
    24D : 8C4;
    24E : 8C4;
    24F : 8C4;
    250 : 8C4;
    251 : 8C4;
    252 : 8C4;
    253 : 8C4;
    254 : 8C4;
    255 : 8C4;
    256 : 8C4;
    257 : 8C4;
    258 : 8C4;
    259 : 8C4;
    25A : BF5;
    25B : BF5;
    25C : 8C4;
    25D : 8C4;
    25E : BF5;
    25F : BF5;
    260 : BF5;
    261 : BF5;
    262 : CF9;
    263 : CF9;
    264 : CF9;
    265 : CF9;
    266 : 000;
    267 : 000;
    268 : 000;
    269 : 000;
    26A : 693;
    26B : 693;
    26C : 693;
    26D : 693;
    26E : 8C4;
    26F : 8C4;
    270 : 8C4;
    271 : 8C4;
    272 : 8C4;
    273 : 8C4;
    274 : 8C4;
    275 : 8C4;
    276 : 8C4;
    277 : 8C4;
    278 : 8C4;
    279 : 8C4;
    27A : 8C4;
    27B : 8C4;
    27C : 8C4;
    27D : 8C4;
    27E : 8C4;
    27F : 8C4;
    280 : 8C4;
    281 : 8C4;
    282 : 8C4;
    283 : 8C4;
    284 : 8C4;
    285 : 8C4;
    286 : 8C4;
    287 : 8C4;
    288 : 8C4;
    289 : 8C4;
    28A : 8C4;
    28B : 8C4;
    28C : 8C4;
    28D : 8C4;
    28E : 8C4;
    28F : 8C4;
    290 : 8C4;
    291 : 8C4;
    292 : BF5;
    293 : BF5;
    294 : 8C4;
    295 : 8C4;
    296 : BF5;
    297 : BF5;
    298 : BF5;
    299 : BF5;
    29A : CF9;
    29B : CF9;
    29C : CF9;
    29D : CF9;
    29E : 000;
    29F : 000;
    2A0 : 000;
    2A1 : 000;
    2A2 : 693;
    2A3 : 693;
    2A4 : 693;
    2A5 : 693;
    2A6 : 8C4;
    2A7 : 8C4;
    2A8 : 8C4;
    2A9 : 8C4;
    2AA : 8C4;
    2AB : 8C4;
    2AC : 8C4;
    2AD : 8C4;
    2AE : 8C4;
    2AF : 8C4;
    2B0 : 8C4;
    2B1 : 8C4;
    2B2 : 8C4;
    2B3 : 8C4;
    2B4 : 8C4;
    2B5 : 8C4;
    2B6 : 8C4;
    2B7 : 8C4;
    2B8 : 8C4;
    2B9 : 8C4;
    2BA : 8C4;
    2BB : 8C4;
    2BC : 8C4;
    2BD : 8C4;
    2BE : 8C4;
    2BF : 8C4;
    2C0 : 8C4;
    2C1 : 8C4;
    2C2 : 8C4;
    2C3 : 8C4;
    2C4 : 8C4;
    2C5 : 8C4;
    2C6 : 8C4;
    2C7 : 8C4;
    2C8 : 8C4;
    2C9 : 8C4;
    2CA : BF5;
    2CB : BF5;
    2CC : 8C4;
    2CD : 8C4;
    2CE : BF5;
    2CF : BF5;
    2D0 : BF5;
    2D1 : BF5;
    2D2 : CF9;
    2D3 : CF9;
    2D4 : CF9;
    2D5 : CF9;
    2D6 : 000;
    2D7 : 000;
    2D8 : 000;
    2D9 : 000;
    2DA : 693;
    2DB : 693;
    2DC : 693;
    2DD : 693;
    2DE : 8C4;
    2DF : 8C4;
    2E0 : 8C4;
    2E1 : 8C4;
    2E2 : 8C4;
    2E3 : 8C4;
    2E4 : 8C4;
    2E5 : 8C4;
    2E6 : 8C4;
    2E7 : 8C4;
    2E8 : 8C4;
    2E9 : 8C4;
    2EA : 8C4;
    2EB : 8C4;
    2EC : 8C4;
    2ED : 8C4;
    2EE : 8C4;
    2EF : 8C4;
    2F0 : 8C4;
    2F1 : 8C4;
    2F2 : 8C4;
    2F3 : 8C4;
    2F4 : 8C4;
    2F5 : 8C4;
    2F6 : 8C4;
    2F7 : 8C4;
    2F8 : 8C4;
    2F9 : 8C4;
    2FA : 8C4;
    2FB : 8C4;
    2FC : 8C4;
    2FD : 8C4;
    2FE : 8C4;
    2FF : 8C4;
    300 : 8C4;
    301 : 8C4;
    302 : BF5;
    303 : BF5;
    304 : 8C4;
    305 : 8C4;
    306 : BF5;
    307 : BF5;
    308 : BF5;
    309 : BF5;
    30A : CF9;
    30B : CF9;
    30C : CF9;
    30D : CF9;
    30E : 000;
    30F : 000;
    310 : 000;
    311 : 000;
    312 : 693;
    313 : 693;
    314 : 693;
    315 : BF5;
    316 : BF5;
    317 : BF5;
    318 : BF5;
    319 : BF5;
    31A : BF5;
    31B : BF5;
    31C : BF5;
    31D : BF5;
    31E : BF5;
    31F : BF5;
    320 : BF5;
    321 : BF5;
    322 : BF5;
    323 : BF5;
    324 : BF5;
    325 : BF5;
    326 : BF5;
    327 : BF5;
    328 : BF5;
    329 : BF5;
    32A : BF5;
    32B : BF5;
    32C : BF5;
    32D : BF5;
    32E : BF5;
    32F : BF5;
    330 : BF5;
    331 : BF5;
    332 : BF5;
    333 : BF5;
    334 : BF5;
    335 : BF5;
    336 : BF5;
    337 : BF5;
    338 : BF5;
    339 : BF5;
    33A : BF5;
    33B : BF5;
    33C : BF5;
    33D : BF5;
    33E : BF5;
    33F : BF5;
    340 : BF5;
    341 : BF5;
    342 : CF9;
    343 : CF9;
    344 : CF9;
    345 : CF9;
    346 : 000;
    347 : 000;
    348 : 000;
    349 : 000;
    34A : 693;
    34B : 693;
    34C : 693;
    34D : BF5;
    34E : BF5;
    34F : BF5;
    350 : BF5;
    351 : BF5;
    352 : BF5;
    353 : BF5;
    354 : BF5;
    355 : BF5;
    356 : BF5;
    357 : BF5;
    358 : BF5;
    359 : BF5;
    35A : BF5;
    35B : BF5;
    35C : BF5;
    35D : BF5;
    35E : BF5;
    35F : BF5;
    360 : BF5;
    361 : BF5;
    362 : BF5;
    363 : BF5;
    364 : BF5;
    365 : BF5;
    366 : BF5;
    367 : BF5;
    368 : BF5;
    369 : BF5;
    36A : BF5;
    36B : BF5;
    36C : BF5;
    36D : BF5;
    36E : BF5;
    36F : BF5;
    370 : BF5;
    371 : BF5;
    372 : BF5;
    373 : BF5;
    374 : BF5;
    375 : BF5;
    376 : BF5;
    377 : BF5;
    378 : BF5;
    379 : BF5;
    37A : CF9;
    37B : CF9;
    37C : CF9;
    37D : CF9;
    37E : 000;
    37F : 000;
    380 : 000;
    381 : 000;
    382 : 444;
    383 : 444;
    384 : 444;
    385 : 444;
    386 : 444;
    387 : 444;
    388 : 444;
    389 : 444;
    38A : 444;
    38B : 444;
    38C : 444;
    38D : 444;
    38E : 444;
    38F : 444;
    390 : 444;
    391 : 444;
    392 : 444;
    393 : 444;
    394 : 444;
    395 : 444;
    396 : 444;
    397 : 444;
    398 : 444;
    399 : 444;
    39A : 444;
    39B : 444;
    39C : 444;
    39D : 444;
    39E : 444;
    39F : 444;
    3A0 : 444;
    3A1 : 444;
    3A2 : 444;
    3A3 : 444;
    3A4 : 444;
    3A5 : 444;
    3A6 : 444;
    3A7 : 444;
    3A8 : 444;
    3A9 : 444;
    3AA : 444;
    3AB : 444;
    3AC : 444;
    3AD : 444;
    3AE : 444;
    3AF : 444;
    3B0 : 444;
    3B1 : 444;
    3B2 : 444;
    3B3 : 444;
    3B4 : 444;
    3B5 : 444;
    3B6 : 000;
    3B7 : 000;
    3B8 : 000;
    3B9 : 000;
    3BA : 444;
    3BB : 444;
    3BC : 444;
    3BD : 444;
    3BE : 444;
    3BF : 444;
    3C0 : 444;
    3C1 : 444;
    3C2 : 444;
    3C3 : 444;
    3C4 : 444;
    3C5 : 444;
    3C6 : 444;
    3C7 : 444;
    3C8 : 444;
    3C9 : 444;
    3CA : 444;
    3CB : 444;
    3CC : 444;
    3CD : 444;
    3CE : 444;
    3CF : 444;
    3D0 : 444;
    3D1 : 444;
    3D2 : 444;
    3D3 : 444;
    3D4 : 444;
    3D5 : 444;
    3D6 : 444;
    3D7 : 444;
    3D8 : 444;
    3D9 : 444;
    3DA : 444;
    3DB : 444;
    3DC : 444;
    3DD : 444;
    3DE : 444;
    3DF : 444;
    3E0 : 444;
    3E1 : 444;
    3E2 : 444;
    3E3 : 444;
    3E4 : 444;
    3E5 : 444;
    3E6 : 444;
    3E7 : 444;
    3E8 : 444;
    3E9 : 444;
    3EA : 444;
    3EB : 444;
    3EC : 444;
    3ED : 444;
    3EE : 000;
    3EF : 000;
    3F0 : 000;
    3F1 : 000;
    3F2 : 000;
    3F3 : 000;
    3F4 : 000;
    3F5 : 000;
    3F6 : 000;
    3F7 : 000;
    3F8 : 000;
    3F9 : 000;
    3FA : 000;
    3FB : 000;
    3FC : 000;
    3FD : 000;
    3FE : 000;
    3FF : 000;
    400 : 000;
    401 : 000;
    402 : 000;
    403 : 000;
    404 : 000;
    405 : 000;
    406 : 000;
    407 : 000;
    408 : 000;
    409 : 000;
    40A : 000;
    40B : 000;
    40C : 000;
    40D : 000;
    40E : 000;
    40F : 000;
    410 : 000;
    411 : 000;
    412 : 000;
    413 : 000;
    414 : 000;
    415 : 000;
    416 : 000;
    417 : 000;
    418 : 000;
    419 : 000;
    41A : 000;
    41B : 000;
    41C : 000;
    41D : 000;
    41E : 000;
    41F : 000;
    420 : 000;
    421 : 000;
    422 : 000;
    423 : 000;
    424 : 000;
    425 : 000;
    426 : 000;
    427 : 000;
    428 : 000;
    429 : 000;
    42A : 000;
    42B : 000;
    42C : 000;
    42D : 000;
    42E : 000;
    42F : 000;
    430 : 000;
    431 : 000;
    432 : 000;
    433 : 000;
    434 : 000;
    435 : 000;
    436 : 000;
    437 : 000;
    438 : 000;
    439 : 000;
    43A : 000;
    43B : 000;
    43C : 000;
    43D : 000;
    43E : 000;
    43F : 000;
    440 : 000;
    441 : 000;
    442 : 000;
    443 : 000;
    444 : 000;
    445 : 000;
    446 : 000;
    447 : 000;
    448 : 000;
    449 : 000;
    44A : 000;
    44B : 000;
    44C : 000;
    44D : 000;
    44E : 000;
    44F : 000;
    450 : 000;
    451 : 000;
    452 : 000;
    453 : 000;
    454 : 000;
    455 : 000;
    456 : 000;
    457 : 000;
    458 : 000;
    459 : 000;
    45A : 000;
    45B : 000;
    45C : 000;
    45D : 000;
    45E : 000;
    45F : 000;
    460 : BBB;
    461 : BBB;
    462 : 000;
    463 : 000;
    464 : 693;
    465 : 693;
    466 : 693;
    467 : 693;
    468 : 8C4;
    469 : 8C4;
    46A : 582;
    46B : 582;
    46C : 8C4;
    46D : 8C4;
    46E : 8C4;
    46F : 8C4;
    470 : 8C4;
    471 : 8C4;
    472 : 8C4;
    473 : 8C4;
    474 : 8C4;
    475 : 8C4;
    476 : 8C4;
    477 : 8C4;
    478 : 8C4;
    479 : 8C4;
    47A : 8C4;
    47B : 8C4;
    47C : 8C4;
    47D : 8C4;
    47E : 8C4;
    47F : 8C4;
    480 : 8C4;
    481 : 8C4;
    482 : 8C4;
    483 : 8C4;
    484 : 8C4;
    485 : 8C4;
    486 : 8C4;
    487 : 8C4;
    488 : BF5;
    489 : BF5;
    48A : 8C4;
    48B : 8C4;
    48C : BF5;
    48D : BF5;
    48E : BF5;
    48F : BF5;
    490 : CF9;
    491 : CF9;
    492 : CF9;
    493 : CF9;
    494 : 000;
    495 : 000;
    496 : BBB;
    497 : BBB;

END;
