-- Memory Initialization File (.mif)
-- Generated from: Score.png
-- Image dimensions: 82x34
-- Color format: 2-bit (00=black, 01=white, 10=gray)
-- Target FPGA: EP3C16F484

DEPTH = 2788;
WIDTH = 2;

ADDRESS_RADIX = HEX;
DATA_RADIX = BIN;

CONTENT
BEGIN

    0 : 10;
    1 : 10;
    2 : 10;
    3 : 10;
    4 : 10;
    5 : 10;
    6 : 00;
    7 : 00;
    8 : 00;
    9 : 00;
    A : 00;
    B : 00;
    C : 10;
    D : 10;
    E : 10;
    F : 10;
    10 : 10;
    11 : 10;
    12 : 10;
    13 : 10;
    14 : 10;
    15 : 10;
    16 : 10;
    17 : 10;
    18 : 10;
    19 : 10;
    1A : 10;
    1B : 10;
    1C : 10;
    1D : 10;
    1E : 10;
    1F : 10;
    20 : 10;
    21 : 10;
    22 : 10;
    23 : 10;
    24 : 10;
    25 : 10;
    26 : 10;
    27 : 10;
    28 : 10;
    29 : 10;
    2A : 10;
    2B : 10;
    2C : 10;
    2D : 10;
    2E : 10;
    2F : 10;
    30 : 10;
    31 : 10;
    32 : 10;
    33 : 10;
    34 : 10;
    35 : 10;
    36 : 10;
    37 : 10;
    38 : 10;
    39 : 10;
    3A : 10;
    3B : 10;
    3C : 10;
    3D : 10;
    3E : 10;
    3F : 10;
    40 : 10;
    41 : 10;
    42 : 10;
    43 : 10;
    44 : 10;
    45 : 10;
    46 : 10;
    47 : 10;
    48 : 10;
    49 : 10;
    4A : 10;
    4B : 10;
    4C : 10;
    4D : 10;
    4E : 10;
    4F : 10;
    50 : 10;
    51 : 10;
    52 : 10;
    53 : 10;
    54 : 10;
    55 : 10;
    56 : 10;
    57 : 10;
    58 : 00;
    59 : 00;
    5A : 00;
    5B : 00;
    5C : 00;
    5D : 00;
    5E : 10;
    5F : 10;
    60 : 10;
    61 : 10;
    62 : 10;
    63 : 10;
    64 : 10;
    65 : 10;
    66 : 10;
    67 : 10;
    68 : 10;
    69 : 10;
    6A : 10;
    6B : 10;
    6C : 10;
    6D : 10;
    6E : 10;
    6F : 10;
    70 : 10;
    71 : 10;
    72 : 10;
    73 : 10;
    74 : 10;
    75 : 10;
    76 : 10;
    77 : 10;
    78 : 10;
    79 : 10;
    7A : 10;
    7B : 10;
    7C : 10;
    7D : 10;
    7E : 10;
    7F : 10;
    80 : 10;
    81 : 10;
    82 : 10;
    83 : 10;
    84 : 10;
    85 : 10;
    86 : 10;
    87 : 10;
    88 : 10;
    89 : 10;
    8A : 10;
    8B : 10;
    8C : 10;
    8D : 10;
    8E : 10;
    8F : 10;
    90 : 10;
    91 : 10;
    92 : 10;
    93 : 10;
    94 : 10;
    95 : 10;
    96 : 10;
    97 : 10;
    98 : 10;
    99 : 10;
    9A : 10;
    9B : 10;
    9C : 10;
    9D : 10;
    9E : 10;
    9F : 10;
    A0 : 10;
    A1 : 10;
    A2 : 10;
    A3 : 10;
    A4 : 10;
    A5 : 10;
    A6 : 10;
    A7 : 10;
    A8 : 00;
    A9 : 00;
    AA : 01;
    AB : 01;
    AC : 01;
    AD : 01;
    AE : 01;
    AF : 01;
    B0 : 00;
    B1 : 00;
    B2 : 10;
    B3 : 10;
    B4 : 10;
    B5 : 10;
    B6 : 10;
    B7 : 10;
    B8 : 10;
    B9 : 10;
    BA : 10;
    BB : 10;
    BC : 10;
    BD : 10;
    BE : 10;
    BF : 10;
    C0 : 10;
    C1 : 10;
    C2 : 10;
    C3 : 10;
    C4 : 10;
    C5 : 10;
    C6 : 10;
    C7 : 10;
    C8 : 10;
    C9 : 10;
    CA : 10;
    CB : 10;
    CC : 10;
    CD : 10;
    CE : 10;
    CF : 10;
    D0 : 10;
    D1 : 10;
    D2 : 10;
    D3 : 10;
    D4 : 10;
    D5 : 10;
    D6 : 10;
    D7 : 10;
    D8 : 10;
    D9 : 10;
    DA : 10;
    DB : 10;
    DC : 10;
    DD : 10;
    DE : 10;
    DF : 10;
    E0 : 10;
    E1 : 10;
    E2 : 10;
    E3 : 10;
    E4 : 10;
    E5 : 10;
    E6 : 10;
    E7 : 10;
    E8 : 10;
    E9 : 10;
    EA : 10;
    EB : 10;
    EC : 10;
    ED : 10;
    EE : 10;
    EF : 10;
    F0 : 10;
    F1 : 10;
    F2 : 10;
    F3 : 10;
    F4 : 10;
    F5 : 10;
    F6 : 10;
    F7 : 10;
    F8 : 10;
    F9 : 10;
    FA : 00;
    FB : 00;
    FC : 01;
    FD : 01;
    FE : 01;
    FF : 01;
    100 : 01;
    101 : 01;
    102 : 00;
    103 : 00;
    104 : 10;
    105 : 10;
    106 : 10;
    107 : 10;
    108 : 10;
    109 : 10;
    10A : 10;
    10B : 10;
    10C : 10;
    10D : 10;
    10E : 10;
    10F : 10;
    110 : 10;
    111 : 10;
    112 : 10;
    113 : 10;
    114 : 10;
    115 : 10;
    116 : 10;
    117 : 10;
    118 : 10;
    119 : 10;
    11A : 10;
    11B : 10;
    11C : 10;
    11D : 10;
    11E : 10;
    11F : 10;
    120 : 10;
    121 : 10;
    122 : 10;
    123 : 10;
    124 : 10;
    125 : 10;
    126 : 10;
    127 : 10;
    128 : 10;
    129 : 10;
    12A : 10;
    12B : 10;
    12C : 10;
    12D : 10;
    12E : 10;
    12F : 10;
    130 : 10;
    131 : 10;
    132 : 10;
    133 : 10;
    134 : 10;
    135 : 10;
    136 : 10;
    137 : 10;
    138 : 10;
    139 : 10;
    13A : 10;
    13B : 10;
    13C : 10;
    13D : 10;
    13E : 10;
    13F : 10;
    140 : 10;
    141 : 10;
    142 : 10;
    143 : 10;
    144 : 10;
    145 : 10;
    146 : 10;
    147 : 10;
    148 : 10;
    149 : 10;
    14A : 00;
    14B : 00;
    14C : 01;
    14D : 01;
    14E : 01;
    14F : 01;
    150 : 01;
    151 : 01;
    152 : 01;
    153 : 01;
    154 : 01;
    155 : 01;
    156 : 00;
    157 : 00;
    158 : 10;
    159 : 10;
    15A : 10;
    15B : 10;
    15C : 10;
    15D : 10;
    15E : 10;
    15F : 10;
    160 : 10;
    161 : 10;
    162 : 10;
    163 : 10;
    164 : 10;
    165 : 10;
    166 : 10;
    167 : 10;
    168 : 10;
    169 : 10;
    16A : 10;
    16B : 10;
    16C : 10;
    16D : 10;
    16E : 10;
    16F : 10;
    170 : 10;
    171 : 10;
    172 : 10;
    173 : 10;
    174 : 10;
    175 : 10;
    176 : 10;
    177 : 10;
    178 : 10;
    179 : 10;
    17A : 10;
    17B : 10;
    17C : 10;
    17D : 10;
    17E : 10;
    17F : 10;
    180 : 10;
    181 : 10;
    182 : 10;
    183 : 10;
    184 : 10;
    185 : 10;
    186 : 10;
    187 : 10;
    188 : 10;
    189 : 10;
    18A : 10;
    18B : 10;
    18C : 10;
    18D : 10;
    18E : 10;
    18F : 10;
    190 : 10;
    191 : 10;
    192 : 10;
    193 : 10;
    194 : 10;
    195 : 10;
    196 : 10;
    197 : 10;
    198 : 10;
    199 : 10;
    19A : 10;
    19B : 10;
    19C : 00;
    19D : 00;
    19E : 01;
    19F : 01;
    1A0 : 01;
    1A1 : 01;
    1A2 : 01;
    1A3 : 01;
    1A4 : 01;
    1A5 : 01;
    1A6 : 01;
    1A7 : 01;
    1A8 : 00;
    1A9 : 00;
    1AA : 10;
    1AB : 10;
    1AC : 10;
    1AD : 10;
    1AE : 10;
    1AF : 10;
    1B0 : 10;
    1B1 : 10;
    1B2 : 10;
    1B3 : 10;
    1B4 : 10;
    1B5 : 10;
    1B6 : 10;
    1B7 : 10;
    1B8 : 10;
    1B9 : 10;
    1BA : 10;
    1BB : 10;
    1BC : 10;
    1BD : 10;
    1BE : 10;
    1BF : 10;
    1C0 : 10;
    1C1 : 10;
    1C2 : 10;
    1C3 : 10;
    1C4 : 10;
    1C5 : 10;
    1C6 : 10;
    1C7 : 10;
    1C8 : 10;
    1C9 : 10;
    1CA : 10;
    1CB : 10;
    1CC : 10;
    1CD : 10;
    1CE : 10;
    1CF : 10;
    1D0 : 10;
    1D1 : 10;
    1D2 : 10;
    1D3 : 10;
    1D4 : 10;
    1D5 : 10;
    1D6 : 10;
    1D7 : 10;
    1D8 : 10;
    1D9 : 10;
    1DA : 10;
    1DB : 10;
    1DC : 10;
    1DD : 10;
    1DE : 10;
    1DF : 10;
    1E0 : 10;
    1E1 : 10;
    1E2 : 10;
    1E3 : 10;
    1E4 : 10;
    1E5 : 10;
    1E6 : 10;
    1E7 : 10;
    1E8 : 10;
    1E9 : 10;
    1EA : 10;
    1EB : 10;
    1EC : 00;
    1ED : 00;
    1EE : 01;
    1EF : 01;
    1F0 : 01;
    1F1 : 01;
    1F2 : 01;
    1F3 : 01;
    1F4 : 01;
    1F5 : 01;
    1F6 : 01;
    1F7 : 01;
    1F8 : 01;
    1F9 : 01;
    1FA : 01;
    1FB : 01;
    1FC : 00;
    1FD : 00;
    1FE : 10;
    1FF : 10;
    200 : 10;
    201 : 10;
    202 : 10;
    203 : 10;
    204 : 10;
    205 : 10;
    206 : 10;
    207 : 10;
    208 : 10;
    209 : 10;
    20A : 10;
    20B : 10;
    20C : 10;
    20D : 10;
    20E : 10;
    20F : 10;
    210 : 10;
    211 : 10;
    212 : 10;
    213 : 10;
    214 : 10;
    215 : 10;
    216 : 10;
    217 : 10;
    218 : 10;
    219 : 10;
    21A : 10;
    21B : 10;
    21C : 10;
    21D : 10;
    21E : 10;
    21F : 10;
    220 : 10;
    221 : 10;
    222 : 10;
    223 : 10;
    224 : 10;
    225 : 10;
    226 : 10;
    227 : 10;
    228 : 10;
    229 : 10;
    22A : 10;
    22B : 10;
    22C : 10;
    22D : 10;
    22E : 10;
    22F : 10;
    230 : 10;
    231 : 10;
    232 : 10;
    233 : 10;
    234 : 10;
    235 : 10;
    236 : 10;
    237 : 10;
    238 : 10;
    239 : 10;
    23A : 10;
    23B : 10;
    23C : 10;
    23D : 10;
    23E : 00;
    23F : 00;
    240 : 01;
    241 : 01;
    242 : 01;
    243 : 01;
    244 : 01;
    245 : 01;
    246 : 01;
    247 : 01;
    248 : 01;
    249 : 01;
    24A : 01;
    24B : 01;
    24C : 01;
    24D : 01;
    24E : 00;
    24F : 00;
    250 : 10;
    251 : 10;
    252 : 10;
    253 : 10;
    254 : 10;
    255 : 10;
    256 : 10;
    257 : 10;
    258 : 10;
    259 : 10;
    25A : 10;
    25B : 10;
    25C : 10;
    25D : 10;
    25E : 10;
    25F : 10;
    260 : 10;
    261 : 10;
    262 : 10;
    263 : 10;
    264 : 10;
    265 : 10;
    266 : 10;
    267 : 10;
    268 : 10;
    269 : 10;
    26A : 10;
    26B : 10;
    26C : 10;
    26D : 10;
    26E : 10;
    26F : 10;
    270 : 10;
    271 : 10;
    272 : 10;
    273 : 10;
    274 : 10;
    275 : 10;
    276 : 10;
    277 : 10;
    278 : 10;
    279 : 10;
    27A : 10;
    27B : 10;
    27C : 10;
    27D : 10;
    27E : 10;
    27F : 10;
    280 : 10;
    281 : 10;
    282 : 10;
    283 : 10;
    284 : 10;
    285 : 10;
    286 : 10;
    287 : 10;
    288 : 10;
    289 : 10;
    28A : 10;
    28B : 10;
    28C : 10;
    28D : 10;
    28E : 10;
    28F : 10;
    290 : 00;
    291 : 00;
    292 : 01;
    293 : 01;
    294 : 01;
    295 : 01;
    296 : 01;
    297 : 01;
    298 : 01;
    299 : 01;
    29A : 01;
    29B : 01;
    29C : 01;
    29D : 01;
    29E : 01;
    29F : 01;
    2A0 : 00;
    2A1 : 00;
    2A2 : 10;
    2A3 : 10;
    2A4 : 10;
    2A5 : 10;
    2A6 : 10;
    2A7 : 10;
    2A8 : 10;
    2A9 : 10;
    2AA : 10;
    2AB : 10;
    2AC : 10;
    2AD : 10;
    2AE : 10;
    2AF : 10;
    2B0 : 10;
    2B1 : 10;
    2B2 : 10;
    2B3 : 10;
    2B4 : 10;
    2B5 : 10;
    2B6 : 10;
    2B7 : 10;
    2B8 : 10;
    2B9 : 10;
    2BA : 10;
    2BB : 10;
    2BC : 10;
    2BD : 10;
    2BE : 10;
    2BF : 10;
    2C0 : 10;
    2C1 : 10;
    2C2 : 10;
    2C3 : 10;
    2C4 : 10;
    2C5 : 10;
    2C6 : 10;
    2C7 : 10;
    2C8 : 10;
    2C9 : 10;
    2CA : 10;
    2CB : 10;
    2CC : 10;
    2CD : 10;
    2CE : 10;
    2CF : 10;
    2D0 : 10;
    2D1 : 10;
    2D2 : 10;
    2D3 : 10;
    2D4 : 10;
    2D5 : 10;
    2D6 : 10;
    2D7 : 10;
    2D8 : 10;
    2D9 : 10;
    2DA : 10;
    2DB : 10;
    2DC : 10;
    2DD : 10;
    2DE : 10;
    2DF : 10;
    2E0 : 10;
    2E1 : 10;
    2E2 : 00;
    2E3 : 00;
    2E4 : 01;
    2E5 : 01;
    2E6 : 01;
    2E7 : 01;
    2E8 : 01;
    2E9 : 01;
    2EA : 01;
    2EB : 01;
    2EC : 01;
    2ED : 01;
    2EE : 01;
    2EF : 01;
    2F0 : 01;
    2F1 : 01;
    2F2 : 00;
    2F3 : 00;
    2F4 : 10;
    2F5 : 10;
    2F6 : 10;
    2F7 : 10;
    2F8 : 10;
    2F9 : 10;
    2FA : 10;
    2FB : 10;
    2FC : 10;
    2FD : 10;
    2FE : 10;
    2FF : 10;
    300 : 10;
    301 : 10;
    302 : 10;
    303 : 10;
    304 : 10;
    305 : 10;
    306 : 10;
    307 : 10;
    308 : 10;
    309 : 10;
    30A : 10;
    30B : 10;
    30C : 10;
    30D : 10;
    30E : 10;
    30F : 10;
    310 : 10;
    311 : 10;
    312 : 10;
    313 : 10;
    314 : 10;
    315 : 10;
    316 : 10;
    317 : 10;
    318 : 10;
    319 : 10;
    31A : 10;
    31B : 10;
    31C : 10;
    31D : 10;
    31E : 10;
    31F : 10;
    320 : 10;
    321 : 10;
    322 : 10;
    323 : 10;
    324 : 10;
    325 : 10;
    326 : 10;
    327 : 10;
    328 : 10;
    329 : 10;
    32A : 10;
    32B : 10;
    32C : 10;
    32D : 10;
    32E : 10;
    32F : 10;
    330 : 10;
    331 : 10;
    332 : 10;
    333 : 10;
    334 : 00;
    335 : 00;
    336 : 01;
    337 : 01;
    338 : 01;
    339 : 01;
    33A : 01;
    33B : 01;
    33C : 01;
    33D : 01;
    33E : 01;
    33F : 01;
    340 : 01;
    341 : 01;
    342 : 01;
    343 : 01;
    344 : 00;
    345 : 00;
    346 : 10;
    347 : 10;
    348 : 10;
    349 : 10;
    34A : 10;
    34B : 10;
    34C : 10;
    34D : 10;
    34E : 10;
    34F : 10;
    350 : 10;
    351 : 10;
    352 : 10;
    353 : 10;
    354 : 10;
    355 : 10;
    356 : 10;
    357 : 10;
    358 : 10;
    359 : 10;
    35A : 10;
    35B : 10;
    35C : 10;
    35D : 10;
    35E : 10;
    35F : 10;
    360 : 10;
    361 : 10;
    362 : 10;
    363 : 10;
    364 : 10;
    365 : 10;
    366 : 10;
    367 : 10;
    368 : 10;
    369 : 10;
    36A : 10;
    36B : 10;
    36C : 10;
    36D : 10;
    36E : 10;
    36F : 10;
    370 : 10;
    371 : 10;
    372 : 10;
    373 : 10;
    374 : 10;
    375 : 10;
    376 : 10;
    377 : 10;
    378 : 10;
    379 : 10;
    37A : 10;
    37B : 10;
    37C : 10;
    37D : 10;
    37E : 10;
    37F : 10;
    380 : 10;
    381 : 10;
    382 : 10;
    383 : 10;
    384 : 10;
    385 : 10;
    386 : 00;
    387 : 00;
    388 : 01;
    389 : 01;
    38A : 01;
    38B : 01;
    38C : 01;
    38D : 01;
    38E : 01;
    38F : 01;
    390 : 00;
    391 : 00;
    392 : 00;
    393 : 00;
    394 : 00;
    395 : 00;
    396 : 00;
    397 : 00;
    398 : 10;
    399 : 10;
    39A : 10;
    39B : 10;
    39C : 10;
    39D : 10;
    39E : 10;
    39F : 10;
    3A0 : 10;
    3A1 : 10;
    3A2 : 10;
    3A3 : 10;
    3A4 : 10;
    3A5 : 10;
    3A6 : 10;
    3A7 : 10;
    3A8 : 10;
    3A9 : 10;
    3AA : 10;
    3AB : 10;
    3AC : 10;
    3AD : 10;
    3AE : 10;
    3AF : 10;
    3B0 : 10;
    3B1 : 10;
    3B2 : 10;
    3B3 : 10;
    3B4 : 10;
    3B5 : 10;
    3B6 : 10;
    3B7 : 10;
    3B8 : 10;
    3B9 : 10;
    3BA : 10;
    3BB : 10;
    3BC : 10;
    3BD : 10;
    3BE : 10;
    3BF : 10;
    3C0 : 10;
    3C1 : 10;
    3C2 : 10;
    3C3 : 10;
    3C4 : 10;
    3C5 : 10;
    3C6 : 10;
    3C7 : 10;
    3C8 : 10;
    3C9 : 10;
    3CA : 10;
    3CB : 10;
    3CC : 10;
    3CD : 10;
    3CE : 10;
    3CF : 10;
    3D0 : 10;
    3D1 : 10;
    3D2 : 10;
    3D3 : 10;
    3D4 : 10;
    3D5 : 10;
    3D6 : 10;
    3D7 : 10;
    3D8 : 00;
    3D9 : 00;
    3DA : 01;
    3DB : 01;
    3DC : 01;
    3DD : 01;
    3DE : 01;
    3DF : 01;
    3E0 : 01;
    3E1 : 01;
    3E2 : 00;
    3E3 : 00;
    3E4 : 00;
    3E5 : 00;
    3E6 : 00;
    3E7 : 00;
    3E8 : 00;
    3E9 : 00;
    3EA : 10;
    3EB : 10;
    3EC : 10;
    3ED : 10;
    3EE : 10;
    3EF : 10;
    3F0 : 10;
    3F1 : 10;
    3F2 : 10;
    3F3 : 10;
    3F4 : 10;
    3F5 : 10;
    3F6 : 10;
    3F7 : 10;
    3F8 : 10;
    3F9 : 10;
    3FA : 10;
    3FB : 10;
    3FC : 10;
    3FD : 10;
    3FE : 10;
    3FF : 10;
    400 : 00;
    401 : 00;
    402 : 00;
    403 : 00;
    404 : 00;
    405 : 00;
    406 : 10;
    407 : 10;
    408 : 10;
    409 : 10;
    40A : 10;
    40B : 10;
    40C : 10;
    40D : 10;
    40E : 10;
    40F : 10;
    410 : 00;
    411 : 00;
    412 : 00;
    413 : 00;
    414 : 00;
    415 : 00;
    416 : 00;
    417 : 00;
    418 : 00;
    419 : 00;
    41A : 10;
    41B : 10;
    41C : 10;
    41D : 10;
    41E : 00;
    41F : 00;
    420 : 00;
    421 : 00;
    422 : 00;
    423 : 00;
    424 : 00;
    425 : 00;
    426 : 00;
    427 : 00;
    428 : 00;
    429 : 00;
    42A : 00;
    42B : 00;
    42C : 01;
    42D : 01;
    42E : 01;
    42F : 01;
    430 : 01;
    431 : 01;
    432 : 01;
    433 : 01;
    434 : 01;
    435 : 01;
    436 : 01;
    437 : 01;
    438 : 01;
    439 : 01;
    43A : 00;
    43B : 00;
    43C : 10;
    43D : 10;
    43E : 10;
    43F : 10;
    440 : 00;
    441 : 00;
    442 : 00;
    443 : 00;
    444 : 00;
    445 : 00;
    446 : 00;
    447 : 00;
    448 : 00;
    449 : 00;
    44A : 00;
    44B : 00;
    44C : 00;
    44D : 00;
    44E : 10;
    44F : 10;
    450 : 10;
    451 : 10;
    452 : 00;
    453 : 00;
    454 : 00;
    455 : 00;
    456 : 00;
    457 : 00;
    458 : 10;
    459 : 10;
    45A : 10;
    45B : 10;
    45C : 10;
    45D : 10;
    45E : 10;
    45F : 10;
    460 : 10;
    461 : 10;
    462 : 00;
    463 : 00;
    464 : 00;
    465 : 00;
    466 : 00;
    467 : 00;
    468 : 00;
    469 : 00;
    46A : 00;
    46B : 00;
    46C : 10;
    46D : 10;
    46E : 10;
    46F : 10;
    470 : 00;
    471 : 00;
    472 : 00;
    473 : 00;
    474 : 00;
    475 : 00;
    476 : 00;
    477 : 00;
    478 : 00;
    479 : 00;
    47A : 00;
    47B : 00;
    47C : 00;
    47D : 00;
    47E : 01;
    47F : 01;
    480 : 01;
    481 : 01;
    482 : 01;
    483 : 01;
    484 : 01;
    485 : 01;
    486 : 01;
    487 : 01;
    488 : 01;
    489 : 01;
    48A : 01;
    48B : 01;
    48C : 00;
    48D : 00;
    48E : 10;
    48F : 10;
    490 : 10;
    491 : 10;
    492 : 00;
    493 : 00;
    494 : 00;
    495 : 00;
    496 : 00;
    497 : 00;
    498 : 00;
    499 : 00;
    49A : 00;
    49B : 00;
    49C : 00;
    49D : 00;
    49E : 00;
    49F : 00;
    4A0 : 10;
    4A1 : 10;
    4A2 : 00;
    4A3 : 00;
    4A4 : 01;
    4A5 : 01;
    4A6 : 01;
    4A7 : 01;
    4A8 : 01;
    4A9 : 01;
    4AA : 00;
    4AB : 00;
    4AC : 10;
    4AD : 10;
    4AE : 10;
    4AF : 10;
    4B0 : 10;
    4B1 : 10;
    4B2 : 00;
    4B3 : 00;
    4B4 : 01;
    4B5 : 01;
    4B6 : 01;
    4B7 : 01;
    4B8 : 01;
    4B9 : 01;
    4BA : 01;
    4BB : 01;
    4BC : 00;
    4BD : 00;
    4BE : 10;
    4BF : 10;
    4C0 : 00;
    4C1 : 00;
    4C2 : 01;
    4C3 : 01;
    4C4 : 01;
    4C5 : 01;
    4C6 : 01;
    4C7 : 01;
    4C8 : 01;
    4C9 : 01;
    4CA : 01;
    4CB : 01;
    4CC : 00;
    4CD : 00;
    4CE : 00;
    4CF : 00;
    4D0 : 01;
    4D1 : 01;
    4D2 : 01;
    4D3 : 01;
    4D4 : 01;
    4D5 : 01;
    4D6 : 01;
    4D7 : 01;
    4D8 : 01;
    4D9 : 01;
    4DA : 01;
    4DB : 01;
    4DC : 01;
    4DD : 01;
    4DE : 00;
    4DF : 00;
    4E0 : 10;
    4E1 : 10;
    4E2 : 00;
    4E3 : 00;
    4E4 : 01;
    4E5 : 01;
    4E6 : 01;
    4E7 : 01;
    4E8 : 01;
    4E9 : 01;
    4EA : 01;
    4EB : 01;
    4EC : 01;
    4ED : 01;
    4EE : 01;
    4EF : 01;
    4F0 : 00;
    4F1 : 00;
    4F2 : 10;
    4F3 : 10;
    4F4 : 00;
    4F5 : 00;
    4F6 : 01;
    4F7 : 01;
    4F8 : 01;
    4F9 : 01;
    4FA : 01;
    4FB : 01;
    4FC : 00;
    4FD : 00;
    4FE : 10;
    4FF : 10;
    500 : 10;
    501 : 10;
    502 : 10;
    503 : 10;
    504 : 00;
    505 : 00;
    506 : 01;
    507 : 01;
    508 : 01;
    509 : 01;
    50A : 01;
    50B : 01;
    50C : 01;
    50D : 01;
    50E : 00;
    50F : 00;
    510 : 10;
    511 : 10;
    512 : 00;
    513 : 00;
    514 : 01;
    515 : 01;
    516 : 01;
    517 : 01;
    518 : 01;
    519 : 01;
    51A : 01;
    51B : 01;
    51C : 01;
    51D : 01;
    51E : 00;
    51F : 00;
    520 : 00;
    521 : 00;
    522 : 01;
    523 : 01;
    524 : 01;
    525 : 01;
    526 : 01;
    527 : 01;
    528 : 01;
    529 : 01;
    52A : 01;
    52B : 01;
    52C : 01;
    52D : 01;
    52E : 01;
    52F : 01;
    530 : 00;
    531 : 00;
    532 : 10;
    533 : 10;
    534 : 00;
    535 : 00;
    536 : 01;
    537 : 01;
    538 : 01;
    539 : 01;
    53A : 01;
    53B : 01;
    53C : 01;
    53D : 01;
    53E : 01;
    53F : 01;
    540 : 01;
    541 : 01;
    542 : 00;
    543 : 00;
    544 : 00;
    545 : 00;
    546 : 01;
    547 : 01;
    548 : 01;
    549 : 01;
    54A : 01;
    54B : 01;
    54C : 01;
    54D : 01;
    54E : 01;
    54F : 01;
    550 : 00;
    551 : 00;
    552 : 10;
    553 : 10;
    554 : 00;
    555 : 00;
    556 : 01;
    557 : 01;
    558 : 01;
    559 : 01;
    55A : 01;
    55B : 01;
    55C : 01;
    55D : 01;
    55E : 01;
    55F : 01;
    560 : 00;
    561 : 00;
    562 : 00;
    563 : 00;
    564 : 01;
    565 : 01;
    566 : 01;
    567 : 01;
    568 : 01;
    569 : 01;
    56A : 01;
    56B : 01;
    56C : 01;
    56D : 01;
    56E : 01;
    56F : 01;
    570 : 00;
    571 : 00;
    572 : 00;
    573 : 00;
    574 : 01;
    575 : 01;
    576 : 01;
    577 : 01;
    578 : 01;
    579 : 01;
    57A : 01;
    57B : 01;
    57C : 01;
    57D : 01;
    57E : 01;
    57F : 01;
    580 : 01;
    581 : 01;
    582 : 00;
    583 : 00;
    584 : 00;
    585 : 00;
    586 : 01;
    587 : 01;
    588 : 01;
    589 : 01;
    58A : 01;
    58B : 01;
    58C : 01;
    58D : 01;
    58E : 01;
    58F : 01;
    590 : 01;
    591 : 01;
    592 : 01;
    593 : 01;
    594 : 00;
    595 : 00;
    596 : 00;
    597 : 00;
    598 : 01;
    599 : 01;
    59A : 01;
    59B : 01;
    59C : 01;
    59D : 01;
    59E : 01;
    59F : 01;
    5A0 : 01;
    5A1 : 01;
    5A2 : 00;
    5A3 : 00;
    5A4 : 10;
    5A5 : 10;
    5A6 : 00;
    5A7 : 00;
    5A8 : 01;
    5A9 : 01;
    5AA : 01;
    5AB : 01;
    5AC : 01;
    5AD : 01;
    5AE : 01;
    5AF : 01;
    5B0 : 01;
    5B1 : 01;
    5B2 : 00;
    5B3 : 00;
    5B4 : 00;
    5B5 : 00;
    5B6 : 01;
    5B7 : 01;
    5B8 : 01;
    5B9 : 01;
    5BA : 01;
    5BB : 01;
    5BC : 01;
    5BD : 01;
    5BE : 01;
    5BF : 01;
    5C0 : 01;
    5C1 : 01;
    5C2 : 00;
    5C3 : 00;
    5C4 : 00;
    5C5 : 00;
    5C6 : 01;
    5C7 : 01;
    5C8 : 01;
    5C9 : 01;
    5CA : 01;
    5CB : 01;
    5CC : 01;
    5CD : 01;
    5CE : 01;
    5CF : 01;
    5D0 : 01;
    5D1 : 01;
    5D2 : 01;
    5D3 : 01;
    5D4 : 00;
    5D5 : 00;
    5D6 : 00;
    5D7 : 00;
    5D8 : 01;
    5D9 : 01;
    5DA : 01;
    5DB : 01;
    5DC : 01;
    5DD : 01;
    5DE : 01;
    5DF : 01;
    5E0 : 01;
    5E1 : 01;
    5E2 : 01;
    5E3 : 01;
    5E4 : 01;
    5E5 : 01;
    5E6 : 00;
    5E7 : 00;
    5E8 : 01;
    5E9 : 01;
    5EA : 01;
    5EB : 01;
    5EC : 01;
    5ED : 01;
    5EE : 01;
    5EF : 01;
    5F0 : 01;
    5F1 : 01;
    5F2 : 01;
    5F3 : 01;
    5F4 : 01;
    5F5 : 01;
    5F6 : 00;
    5F7 : 00;
    5F8 : 01;
    5F9 : 01;
    5FA : 01;
    5FB : 01;
    5FC : 01;
    5FD : 01;
    5FE : 01;
    5FF : 01;
    600 : 01;
    601 : 01;
    602 : 01;
    603 : 01;
    604 : 00;
    605 : 00;
    606 : 01;
    607 : 01;
    608 : 01;
    609 : 01;
    60A : 01;
    60B : 01;
    60C : 01;
    60D : 01;
    60E : 00;
    60F : 00;
    610 : 01;
    611 : 01;
    612 : 01;
    613 : 01;
    614 : 00;
    615 : 00;
    616 : 00;
    617 : 00;
    618 : 01;
    619 : 01;
    61A : 01;
    61B : 01;
    61C : 01;
    61D : 01;
    61E : 01;
    61F : 01;
    620 : 01;
    621 : 01;
    622 : 01;
    623 : 01;
    624 : 01;
    625 : 01;
    626 : 00;
    627 : 00;
    628 : 01;
    629 : 01;
    62A : 01;
    62B : 01;
    62C : 01;
    62D : 01;
    62E : 01;
    62F : 01;
    630 : 01;
    631 : 01;
    632 : 01;
    633 : 01;
    634 : 01;
    635 : 01;
    636 : 01;
    637 : 01;
    638 : 00;
    639 : 00;
    63A : 01;
    63B : 01;
    63C : 01;
    63D : 01;
    63E : 01;
    63F : 01;
    640 : 00;
    641 : 00;
    642 : 01;
    643 : 01;
    644 : 01;
    645 : 01;
    646 : 01;
    647 : 01;
    648 : 00;
    649 : 00;
    64A : 01;
    64B : 01;
    64C : 01;
    64D : 01;
    64E : 01;
    64F : 01;
    650 : 01;
    651 : 01;
    652 : 00;
    653 : 00;
    654 : 00;
    655 : 00;
    656 : 00;
    657 : 00;
    658 : 01;
    659 : 01;
    65A : 01;
    65B : 01;
    65C : 01;
    65D : 01;
    65E : 01;
    65F : 01;
    660 : 00;
    661 : 00;
    662 : 01;
    663 : 01;
    664 : 01;
    665 : 01;
    666 : 00;
    667 : 00;
    668 : 00;
    669 : 00;
    66A : 01;
    66B : 01;
    66C : 01;
    66D : 01;
    66E : 01;
    66F : 01;
    670 : 01;
    671 : 01;
    672 : 01;
    673 : 01;
    674 : 01;
    675 : 01;
    676 : 01;
    677 : 01;
    678 : 00;
    679 : 00;
    67A : 01;
    67B : 01;
    67C : 01;
    67D : 01;
    67E : 01;
    67F : 01;
    680 : 01;
    681 : 01;
    682 : 01;
    683 : 01;
    684 : 01;
    685 : 01;
    686 : 01;
    687 : 01;
    688 : 01;
    689 : 01;
    68A : 00;
    68B : 00;
    68C : 01;
    68D : 01;
    68E : 01;
    68F : 01;
    690 : 01;
    691 : 01;
    692 : 00;
    693 : 00;
    694 : 01;
    695 : 01;
    696 : 01;
    697 : 01;
    698 : 01;
    699 : 01;
    69A : 00;
    69B : 00;
    69C : 01;
    69D : 01;
    69E : 01;
    69F : 01;
    6A0 : 01;
    6A1 : 01;
    6A2 : 01;
    6A3 : 01;
    6A4 : 00;
    6A5 : 00;
    6A6 : 00;
    6A7 : 00;
    6A8 : 00;
    6A9 : 00;
    6AA : 01;
    6AB : 01;
    6AC : 01;
    6AD : 01;
    6AE : 01;
    6AF : 01;
    6B0 : 01;
    6B1 : 01;
    6B2 : 01;
    6B3 : 01;
    6B4 : 01;
    6B5 : 01;
    6B6 : 01;
    6B7 : 01;
    6B8 : 00;
    6B9 : 00;
    6BA : 00;
    6BB : 00;
    6BC : 00;
    6BD : 00;
    6BE : 00;
    6BF : 00;
    6C0 : 00;
    6C1 : 00;
    6C2 : 01;
    6C3 : 01;
    6C4 : 01;
    6C5 : 01;
    6C6 : 01;
    6C7 : 01;
    6C8 : 01;
    6C9 : 01;
    6CA : 00;
    6CB : 00;
    6CC : 01;
    6CD : 01;
    6CE : 01;
    6CF : 01;
    6D0 : 01;
    6D1 : 01;
    6D2 : 01;
    6D3 : 01;
    6D4 : 01;
    6D5 : 01;
    6D6 : 01;
    6D7 : 01;
    6D8 : 01;
    6D9 : 01;
    6DA : 01;
    6DB : 01;
    6DC : 00;
    6DD : 00;
    6DE : 01;
    6DF : 01;
    6E0 : 01;
    6E1 : 01;
    6E2 : 01;
    6E3 : 01;
    6E4 : 00;
    6E5 : 00;
    6E6 : 01;
    6E7 : 01;
    6E8 : 01;
    6E9 : 01;
    6EA : 01;
    6EB : 01;
    6EC : 00;
    6ED : 00;
    6EE : 01;
    6EF : 01;
    6F0 : 01;
    6F1 : 01;
    6F2 : 01;
    6F3 : 01;
    6F4 : 00;
    6F5 : 00;
    6F6 : 00;
    6F7 : 00;
    6F8 : 10;
    6F9 : 10;
    6FA : 00;
    6FB : 00;
    6FC : 01;
    6FD : 01;
    6FE : 01;
    6FF : 01;
    700 : 01;
    701 : 01;
    702 : 01;
    703 : 01;
    704 : 01;
    705 : 01;
    706 : 01;
    707 : 01;
    708 : 01;
    709 : 01;
    70A : 00;
    70B : 00;
    70C : 00;
    70D : 00;
    70E : 00;
    70F : 00;
    710 : 00;
    711 : 00;
    712 : 00;
    713 : 00;
    714 : 01;
    715 : 01;
    716 : 01;
    717 : 01;
    718 : 01;
    719 : 01;
    71A : 01;
    71B : 01;
    71C : 00;
    71D : 00;
    71E : 01;
    71F : 01;
    720 : 01;
    721 : 01;
    722 : 01;
    723 : 01;
    724 : 01;
    725 : 01;
    726 : 01;
    727 : 00;
    728 : 00;
    729 : 00;
    72A : 00;
    72B : 00;
    72C : 00;
    72D : 00;
    72E : 00;
    72F : 00;
    730 : 01;
    731 : 01;
    732 : 01;
    733 : 01;
    734 : 01;
    735 : 01;
    736 : 00;
    737 : 00;
    738 : 01;
    739 : 01;
    73A : 01;
    73B : 01;
    73C : 01;
    73D : 01;
    73E : 00;
    73F : 00;
    740 : 01;
    741 : 01;
    742 : 01;
    743 : 01;
    744 : 01;
    745 : 01;
    746 : 00;
    747 : 00;
    748 : 00;
    749 : 00;
    74A : 10;
    74B : 10;
    74C : 00;
    74D : 00;
    74E : 01;
    74F : 01;
    750 : 01;
    751 : 01;
    752 : 01;
    753 : 01;
    754 : 01;
    755 : 01;
    756 : 01;
    757 : 01;
    758 : 01;
    759 : 01;
    75A : 01;
    75B : 01;
    75C : 00;
    75D : 00;
    75E : 00;
    75F : 00;
    760 : 01;
    761 : 01;
    762 : 01;
    763 : 01;
    764 : 01;
    765 : 01;
    766 : 01;
    767 : 01;
    768 : 01;
    769 : 01;
    76A : 01;
    76B : 01;
    76C : 01;
    76D : 01;
    76E : 00;
    76F : 00;
    770 : 01;
    771 : 01;
    772 : 01;
    773 : 01;
    774 : 01;
    775 : 01;
    776 : 01;
    777 : 01;
    778 : 01;
    779 : 00;
    77A : 00;
    77B : 00;
    77C : 00;
    77D : 00;
    77E : 00;
    77F : 00;
    780 : 00;
    781 : 00;
    782 : 01;
    783 : 01;
    784 : 01;
    785 : 01;
    786 : 01;
    787 : 01;
    788 : 00;
    789 : 00;
    78A : 01;
    78B : 01;
    78C : 01;
    78D : 01;
    78E : 01;
    78F : 01;
    790 : 00;
    791 : 00;
    792 : 01;
    793 : 01;
    794 : 01;
    795 : 01;
    796 : 01;
    797 : 01;
    798 : 00;
    799 : 00;
    79A : 10;
    79B : 10;
    79C : 10;
    79D : 10;
    79E : 00;
    79F : 00;
    7A0 : 01;
    7A1 : 01;
    7A2 : 01;
    7A3 : 01;
    7A4 : 01;
    7A5 : 01;
    7A6 : 01;
    7A7 : 01;
    7A8 : 01;
    7A9 : 01;
    7AA : 01;
    7AB : 01;
    7AC : 01;
    7AD : 01;
    7AE : 00;
    7AF : 00;
    7B0 : 00;
    7B1 : 00;
    7B2 : 01;
    7B3 : 01;
    7B4 : 01;
    7B5 : 01;
    7B6 : 01;
    7B7 : 01;
    7B8 : 01;
    7B9 : 01;
    7BA : 01;
    7BB : 01;
    7BC : 01;
    7BD : 01;
    7BE : 01;
    7BF : 01;
    7C0 : 00;
    7C1 : 00;
    7C2 : 01;
    7C3 : 01;
    7C4 : 01;
    7C5 : 01;
    7C6 : 01;
    7C7 : 01;
    7C8 : 01;
    7C9 : 01;
    7CA : 01;
    7CB : 01;
    7CC : 01;
    7CD : 01;
    7CE : 01;
    7CF : 01;
    7D0 : 01;
    7D1 : 01;
    7D2 : 00;
    7D3 : 00;
    7D4 : 01;
    7D5 : 01;
    7D6 : 01;
    7D7 : 01;
    7D8 : 01;
    7D9 : 01;
    7DA : 00;
    7DB : 00;
    7DC : 01;
    7DD : 01;
    7DE : 01;
    7DF : 01;
    7E0 : 01;
    7E1 : 01;
    7E2 : 00;
    7E3 : 00;
    7E4 : 01;
    7E5 : 01;
    7E6 : 01;
    7E7 : 01;
    7E8 : 01;
    7E9 : 01;
    7EA : 00;
    7EB : 00;
    7EC : 10;
    7ED : 10;
    7EE : 10;
    7EF : 10;
    7F0 : 00;
    7F1 : 00;
    7F2 : 01;
    7F3 : 01;
    7F4 : 01;
    7F5 : 01;
    7F6 : 01;
    7F7 : 01;
    7F8 : 01;
    7F9 : 00;
    7FA : 00;
    7FB : 00;
    7FC : 00;
    7FD : 00;
    7FE : 00;
    7FF : 00;
    800 : 00;
    801 : 00;
    802 : 00;
    803 : 00;
    804 : 01;
    805 : 01;
    806 : 01;
    807 : 01;
    808 : 01;
    809 : 01;
    80A : 01;
    80B : 01;
    80C : 01;
    80D : 01;
    80E : 01;
    80F : 01;
    810 : 01;
    811 : 01;
    812 : 00;
    813 : 00;
    814 : 01;
    815 : 01;
    816 : 01;
    817 : 01;
    818 : 01;
    819 : 01;
    81A : 01;
    81B : 01;
    81C : 01;
    81D : 01;
    81E : 01;
    81F : 01;
    820 : 01;
    821 : 01;
    822 : 01;
    823 : 01;
    824 : 00;
    825 : 00;
    826 : 01;
    827 : 01;
    828 : 01;
    829 : 01;
    82A : 01;
    82B : 01;
    82C : 00;
    82D : 00;
    82E : 01;
    82F : 01;
    830 : 01;
    831 : 01;
    832 : 01;
    833 : 01;
    834 : 00;
    835 : 00;
    836 : 01;
    837 : 01;
    838 : 01;
    839 : 01;
    83A : 01;
    83B : 01;
    83C : 00;
    83D : 00;
    83E : 10;
    83F : 10;
    840 : 10;
    841 : 10;
    842 : 00;
    843 : 00;
    844 : 01;
    845 : 01;
    846 : 01;
    847 : 01;
    848 : 01;
    849 : 01;
    84A : 01;
    84B : 00;
    84C : 00;
    84D : 00;
    84E : 00;
    84F : 00;
    850 : 00;
    851 : 00;
    852 : 00;
    853 : 00;
    854 : 00;
    855 : 00;
    856 : 01;
    857 : 01;
    858 : 01;
    859 : 01;
    85A : 01;
    85B : 01;
    85C : 01;
    85D : 01;
    85E : 01;
    85F : 01;
    860 : 01;
    861 : 01;
    862 : 01;
    863 : 01;
    864 : 00;
    865 : 00;
    866 : 01;
    867 : 01;
    868 : 01;
    869 : 01;
    86A : 01;
    86B : 01;
    86C : 01;
    86D : 01;
    86E : 01;
    86F : 01;
    870 : 01;
    871 : 01;
    872 : 01;
    873 : 01;
    874 : 01;
    875 : 01;
    876 : 00;
    877 : 00;
    878 : 01;
    879 : 01;
    87A : 01;
    87B : 01;
    87C : 01;
    87D : 01;
    87E : 01;
    87F : 01;
    880 : 01;
    881 : 01;
    882 : 01;
    883 : 01;
    884 : 01;
    885 : 01;
    886 : 00;
    887 : 00;
    888 : 01;
    889 : 01;
    88A : 01;
    88B : 01;
    88C : 01;
    88D : 01;
    88E : 00;
    88F : 00;
    890 : 10;
    891 : 10;
    892 : 10;
    893 : 10;
    894 : 00;
    895 : 00;
    896 : 01;
    897 : 01;
    898 : 01;
    899 : 01;
    89A : 01;
    89B : 01;
    89C : 01;
    89D : 01;
    89E : 01;
    89F : 01;
    8A0 : 01;
    8A1 : 01;
    8A2 : 01;
    8A3 : 01;
    8A4 : 00;
    8A5 : 00;
    8A6 : 00;
    8A7 : 00;
    8A8 : 00;
    8A9 : 00;
    8AA : 01;
    8AB : 01;
    8AC : 01;
    8AD : 01;
    8AE : 01;
    8AF : 01;
    8B0 : 01;
    8B1 : 01;
    8B2 : 01;
    8B3 : 01;
    8B4 : 00;
    8B5 : 00;
    8B6 : 00;
    8B7 : 00;
    8B8 : 00;
    8B9 : 00;
    8BA : 01;
    8BB : 01;
    8BC : 01;
    8BD : 01;
    8BE : 01;
    8BF : 01;
    8C0 : 01;
    8C1 : 01;
    8C2 : 01;
    8C3 : 01;
    8C4 : 01;
    8C5 : 01;
    8C6 : 01;
    8C7 : 01;
    8C8 : 00;
    8C9 : 00;
    8CA : 00;
    8CB : 00;
    8CC : 01;
    8CD : 01;
    8CE : 01;
    8CF : 01;
    8D0 : 01;
    8D1 : 01;
    8D2 : 01;
    8D3 : 01;
    8D4 : 01;
    8D5 : 01;
    8D6 : 00;
    8D7 : 00;
    8D8 : 00;
    8D9 : 00;
    8DA : 01;
    8DB : 01;
    8DC : 01;
    8DD : 01;
    8DE : 01;
    8DF : 01;
    8E0 : 00;
    8E1 : 00;
    8E2 : 10;
    8E3 : 10;
    8E4 : 10;
    8E5 : 10;
    8E6 : 00;
    8E7 : 00;
    8E8 : 01;
    8E9 : 01;
    8EA : 01;
    8EB : 01;
    8EC : 01;
    8ED : 01;
    8EE : 01;
    8EF : 01;
    8F0 : 01;
    8F1 : 01;
    8F2 : 01;
    8F3 : 01;
    8F4 : 01;
    8F5 : 01;
    8F6 : 00;
    8F7 : 00;
    8F8 : 10;
    8F9 : 10;
    8FA : 00;
    8FB : 00;
    8FC : 01;
    8FD : 01;
    8FE : 01;
    8FF : 01;
    900 : 01;
    901 : 01;
    902 : 01;
    903 : 01;
    904 : 01;
    905 : 01;
    906 : 00;
    907 : 00;
    908 : 10;
    909 : 10;
    90A : 00;
    90B : 00;
    90C : 01;
    90D : 01;
    90E : 01;
    90F : 01;
    910 : 01;
    911 : 01;
    912 : 01;
    913 : 01;
    914 : 01;
    915 : 01;
    916 : 01;
    917 : 01;
    918 : 01;
    919 : 01;
    91A : 00;
    91B : 00;
    91C : 00;
    91D : 00;
    91E : 01;
    91F : 01;
    920 : 01;
    921 : 01;
    922 : 01;
    923 : 01;
    924 : 01;
    925 : 01;
    926 : 01;
    927 : 01;
    928 : 00;
    929 : 00;
    92A : 00;
    92B : 00;
    92C : 01;
    92D : 01;
    92E : 01;
    92F : 01;
    930 : 01;
    931 : 01;
    932 : 00;
    933 : 00;
    934 : 10;
    935 : 10;
    936 : 10;
    937 : 10;
    938 : 00;
    939 : 00;
    93A : 01;
    93B : 01;
    93C : 01;
    93D : 01;
    93E : 01;
    93F : 01;
    940 : 01;
    941 : 01;
    942 : 01;
    943 : 01;
    944 : 01;
    945 : 01;
    946 : 01;
    947 : 01;
    948 : 00;
    949 : 00;
    94A : 10;
    94B : 10;
    94C : 00;
    94D : 00;
    94E : 00;
    94F : 00;
    950 : 01;
    951 : 01;
    952 : 01;
    953 : 01;
    954 : 01;
    955 : 01;
    956 : 00;
    957 : 00;
    958 : 00;
    959 : 00;
    95A : 10;
    95B : 10;
    95C : 00;
    95D : 00;
    95E : 00;
    95F : 00;
    960 : 01;
    961 : 01;
    962 : 01;
    963 : 01;
    964 : 01;
    965 : 01;
    966 : 01;
    967 : 01;
    968 : 01;
    969 : 01;
    96A : 01;
    96B : 01;
    96C : 00;
    96D : 00;
    96E : 00;
    96F : 00;
    970 : 00;
    971 : 00;
    972 : 01;
    973 : 01;
    974 : 01;
    975 : 01;
    976 : 01;
    977 : 01;
    978 : 00;
    979 : 00;
    97A : 00;
    97B : 00;
    97C : 00;
    97D : 00;
    97E : 01;
    97F : 01;
    980 : 01;
    981 : 01;
    982 : 01;
    983 : 01;
    984 : 00;
    985 : 00;
    986 : 10;
    987 : 10;
    988 : 10;
    989 : 10;
    98A : 00;
    98B : 00;
    98C : 00;
    98D : 00;
    98E : 01;
    98F : 01;
    990 : 01;
    991 : 01;
    992 : 01;
    993 : 01;
    994 : 01;
    995 : 01;
    996 : 01;
    997 : 01;
    998 : 01;
    999 : 01;
    99A : 00;
    99B : 00;
    99C : 10;
    99D : 10;
    99E : 10;
    99F : 10;
    9A0 : 00;
    9A1 : 00;
    9A2 : 01;
    9A3 : 01;
    9A4 : 01;
    9A5 : 01;
    9A6 : 01;
    9A7 : 01;
    9A8 : 00;
    9A9 : 00;
    9AA : 10;
    9AB : 10;
    9AC : 10;
    9AD : 10;
    9AE : 10;
    9AF : 10;
    9B0 : 00;
    9B1 : 00;
    9B2 : 01;
    9B3 : 01;
    9B4 : 01;
    9B5 : 01;
    9B6 : 01;
    9B7 : 01;
    9B8 : 01;
    9B9 : 01;
    9BA : 01;
    9BB : 01;
    9BC : 01;
    9BD : 01;
    9BE : 00;
    9BF : 00;
    9C0 : 10;
    9C1 : 10;
    9C2 : 00;
    9C3 : 00;
    9C4 : 01;
    9C5 : 01;
    9C6 : 01;
    9C7 : 01;
    9C8 : 01;
    9C9 : 01;
    9CA : 00;
    9CB : 00;
    9CC : 10;
    9CD : 10;
    9CE : 00;
    9CF : 00;
    9D0 : 01;
    9D1 : 01;
    9D2 : 01;
    9D3 : 01;
    9D4 : 01;
    9D5 : 01;
    9D6 : 00;
    9D7 : 00;
    9D8 : 10;
    9D9 : 10;
    9DA : 10;
    9DB : 10;
    9DC : 10;
    9DD : 10;
    9DE : 00;
    9DF : 00;
    9E0 : 01;
    9E1 : 01;
    9E2 : 01;
    9E3 : 01;
    9E4 : 01;
    9E5 : 01;
    9E6 : 01;
    9E7 : 01;
    9E8 : 01;
    9E9 : 01;
    9EA : 01;
    9EB : 01;
    9EC : 00;
    9ED : 00;
    9EE : 10;
    9EF : 10;
    9F0 : 10;
    9F1 : 10;
    9F2 : 00;
    9F3 : 00;
    9F4 : 00;
    9F5 : 00;
    9F6 : 00;
    9F7 : 00;
    9F8 : 00;
    9F9 : 00;
    9FA : 00;
    9FB : 00;
    9FC : 10;
    9FD : 10;
    9FE : 10;
    9FF : 10;
    A00 : 10;
    A01 : 10;
    A02 : 00;
    A03 : 00;
    A04 : 00;
    A05 : 00;
    A06 : 00;
    A07 : 00;
    A08 : 00;
    A09 : 00;
    A0A : 00;
    A0B : 00;
    A0C : 00;
    A0D : 00;
    A0E : 00;
    A0F : 00;
    A10 : 00;
    A11 : 00;
    A12 : 10;
    A13 : 10;
    A14 : 00;
    A15 : 00;
    A16 : 00;
    A17 : 00;
    A18 : 00;
    A19 : 00;
    A1A : 00;
    A1B : 00;
    A1C : 00;
    A1D : 00;
    A1E : 10;
    A1F : 10;
    A20 : 00;
    A21 : 00;
    A22 : 00;
    A23 : 00;
    A24 : 00;
    A25 : 00;
    A26 : 00;
    A27 : 00;
    A28 : 00;
    A29 : 00;
    A2A : 10;
    A2B : 10;
    A2C : 10;
    A2D : 10;
    A2E : 10;
    A2F : 10;
    A30 : 00;
    A31 : 00;
    A32 : 00;
    A33 : 00;
    A34 : 00;
    A35 : 00;
    A36 : 00;
    A37 : 00;
    A38 : 00;
    A39 : 00;
    A3A : 00;
    A3B : 00;
    A3C : 00;
    A3D : 00;
    A3E : 00;
    A3F : 00;
    A40 : 10;
    A41 : 10;
    A42 : 10;
    A43 : 10;
    A44 : 10;
    A45 : 10;
    A46 : 00;
    A47 : 00;
    A48 : 00;
    A49 : 00;
    A4A : 00;
    A4B : 00;
    A4C : 10;
    A4D : 10;
    A4E : 10;
    A4F : 10;
    A50 : 10;
    A51 : 10;
    A52 : 10;
    A53 : 10;
    A54 : 10;
    A55 : 10;
    A56 : 00;
    A57 : 00;
    A58 : 00;
    A59 : 00;
    A5A : 00;
    A5B : 00;
    A5C : 00;
    A5D : 00;
    A5E : 00;
    A5F : 00;
    A60 : 00;
    A61 : 00;
    A62 : 00;
    A63 : 00;
    A64 : 10;
    A65 : 10;
    A66 : 10;
    A67 : 10;
    A68 : 00;
    A69 : 00;
    A6A : 00;
    A6B : 00;
    A6C : 00;
    A6D : 00;
    A6E : 10;
    A6F : 10;
    A70 : 10;
    A71 : 10;
    A72 : 00;
    A73 : 00;
    A74 : 00;
    A75 : 00;
    A76 : 00;
    A77 : 00;
    A78 : 00;
    A79 : 00;
    A7A : 00;
    A7B : 00;
    A7C : 10;
    A7D : 10;
    A7E : 10;
    A7F : 10;
    A80 : 10;
    A81 : 10;
    A82 : 10;
    A83 : 10;
    A84 : 00;
    A85 : 00;
    A86 : 00;
    A87 : 00;
    A88 : 00;
    A89 : 00;
    A8A : 00;
    A8B : 00;
    A8C : 00;
    A8D : 00;
    A8E : 00;
    A8F : 00;
    A90 : 00;
    A91 : 00;
    A92 : 10;
    A93 : 10;
    A94 : 10;
    A95 : 10;
    A96 : 10;
    A97 : 10;
    A98 : 00;
    A99 : 00;
    A9A : 00;
    A9B : 00;
    A9C : 00;
    A9D : 00;
    A9E : 10;
    A9F : 10;
    AA0 : 10;
    AA1 : 10;
    AA2 : 10;
    AA3 : 10;
    AA4 : 10;
    AA5 : 10;
    AA6 : 10;
    AA7 : 10;
    AA8 : 00;
    AA9 : 00;
    AAA : 00;
    AAB : 00;
    AAC : 00;
    AAD : 00;
    AAE : 00;
    AAF : 00;
    AB0 : 00;
    AB1 : 00;
    AB2 : 00;
    AB3 : 00;
    AB4 : 00;
    AB5 : 00;
    AB6 : 10;
    AB7 : 10;
    AB8 : 10;
    AB9 : 10;
    ABA : 00;
    ABB : 00;
    ABC : 00;
    ABD : 00;
    ABE : 00;
    ABF : 00;
    AC0 : 10;
    AC1 : 10;
    AC2 : 10;
    AC3 : 10;
    AC4 : 00;
    AC5 : 00;
    AC6 : 00;
    AC7 : 00;
    AC8 : 00;
    AC9 : 00;
    ACA : 00;
    ACB : 00;
    ACC : 00;
    ACD : 00;
    ACE : 10;
    ACF : 10;
    AD0 : 10;
    AD1 : 10;
    AD2 : 10;
    AD3 : 10;
    AD4 : 10;
    AD5 : 10;
    AD6 : 00;
    AD7 : 00;
    AD8 : 00;
    AD9 : 00;
    ADA : 00;
    ADB : 00;
    ADC : 00;
    ADD : 00;
    ADE : 00;
    ADF : 00;
    AE0 : 00;
    AE1 : 00;
    AE2 : 00;
    AE3 : 00;

END;